data_image0
_cell_length_a       12.7321
_cell_length_b       13.5133
_cell_length_c       25.484
_cell_angle_alpha    90
_cell_angle_beta     90
_cell_angle_gamma    90

_symmetry_space_group_name_H-M    "P 1"
_symmetry_int_tables_number       1

loop_
  _symmetry_equiv_pos_as_xyz
  'x, y, z'

loop_
  _atom_site_label
  _atom_site_occupancy
  _atom_site_fract_x
  _atom_site_fract_y
  _atom_site_fract_z
  _atom_site_thermal_displace_type
  _atom_site_B_iso_or_equiv
  _atom_site_type_symbol
  O1       1.0000 0.87450  0.31890  0.75339  Biso   1.000  O
  O2       1.0000 0.90900  0.40300  0.68410  Biso   1.000  O
  O3       1.0000 0.63180  0.44510  0.54800  Biso   1.000  O
  O4       1.0000 0.49090  0.35870  0.55437  Biso   1.000  O
  O5       1.0000 0.51090  0.63860  0.56566  Biso   1.000  O
  O6       1.0000 0.37320  0.55210  0.54880  Biso   1.000  O
  O7       1.0000 0.10100  0.51480  0.68690  Biso   1.000  O
  O8       1.0000 0.11710  0.59630  0.75826  Biso   1.000  O
  O9       1.0000 0.55920  0.10390  0.69039  Biso   1.000  O
  O10      1.0000 0.38300  0.85690  0.72133  Biso   1.000  O
  C1       1.0000 0.85500  0.33920  0.70710  Biso   1.000  C
  C2       1.0000 0.76050  0.29840  0.67925  Biso   1.000  C
  C3       1.0000 0.72290  0.34700  0.63590  Biso   1.000  C
  H1       1.0000 0.75990  0.40020  0.62210  Biso   1.000  H
  C4       1.0000 0.62840  0.31660  0.61242  Biso   1.000  C
  C5       1.0000 0.57680  0.23630  0.63201  Biso   1.000  C
  H2       1.0000 0.51380  0.21640  0.61680  Biso   1.000  H
  C6       1.0000 0.61740  0.18280  0.67500  Biso   1.000  C
  C7       1.0000 0.70910  0.21520  0.69892  Biso   1.000  C
  H3       1.0000 0.73600  0.18170  0.72780  Biso   1.000  H
  C8       1.0000 0.58100  0.37720  0.56886  Biso   1.000  C
  C9       1.0000 0.59240  0.04870  0.73411  Biso   1.000  C
  H4       1.0000 0.61120  0.09240  0.76280  Biso   1.000  H
  H5       1.0000 0.65310  0.00880  0.72520  Biso   1.000  H
  C10      1.0000 0.46670  0.91710  0.70350  Biso   1.000  C
  H6       1.0000 0.44390  0.95800  0.67440  Biso   1.000  H
  H7       1.0000 0.52510  0.87640  0.69190  Biso   1.000  H
  C11      1.0000 0.35420  0.77650  0.69361  Biso   1.000  C
  C12      1.0000 0.40220  0.74380  0.64767  Biso   1.000  C
  H8       1.0000 0.45850  0.77840  0.63350  Biso   1.000  H
  C13      1.0000 0.36450  0.65750  0.62288  Biso   1.000  C
  C14      1.0000 0.27930  0.60880  0.64260  Biso   1.000  C
  H9       1.0000 0.25240  0.55440  0.62470  Biso   1.000  H
  C15      1.0000 0.23170  0.63980  0.68936  Biso   1.000  C
  C16      1.0000 0.26940  0.72310  0.71466  Biso   1.000  C
  H10      1.0000 0.23840  0.74380  0.74580  Biso   1.000  H
  C17      1.0000 0.41960  0.61500  0.57530  Biso   1.000  C
  C18      1.0000 0.14440  0.58230  0.71310  Biso   1.000  C
  O11      1.0000 0.12550  0.68110  0.25339  Biso   1.000  O
  O12      1.0000 0.09100  0.59700  0.18410  Biso   1.000  O
  O13      1.0000 0.36820  0.55490  0.04800  Biso   1.000  O
  O14      1.0000 0.50910  0.64130  0.05437  Biso   1.000  O
  O15      1.0000 0.48910  0.36140  0.06566  Biso   1.000  O
  O16      1.0000 0.62680  0.44790  0.04880  Biso   1.000  O
  O17      1.0000 0.89900  0.48520  0.18690  Biso   1.000  O
  O18      1.0000 0.88290  0.40370  0.25826  Biso   1.000  O
  O19      1.0000 0.44080  0.89610  0.19039  Biso   1.000  O
  O20      1.0000 0.61700  0.14310  0.22133  Biso   1.000  O
  C19      1.0000 0.14500  0.66080  0.20710  Biso   1.000  C
  C20      1.0000 0.23950  0.70160  0.17925  Biso   1.000  C
  C21      1.0000 0.27710  0.65300  0.13590  Biso   1.000  C
  H11      1.0000 0.24010  0.59980  0.12210  Biso   1.000  H
  C22      1.0000 0.37160  0.68340  0.11242  Biso   1.000  C
  C23      1.0000 0.42320  0.76370  0.13201  Biso   1.000  C
  H12      1.0000 0.48620  0.78360  0.11680  Biso   1.000  H
  C24      1.0000 0.38260  0.81720  0.17500  Biso   1.000  C
  C25      1.0000 0.29090  0.78480  0.19892  Biso   1.000  C
  H13      1.0000 0.26400  0.81830  0.22780  Biso   1.000  H
  C26      1.0000 0.41900  0.62280  0.06886  Biso   1.000  C
  C27      1.0000 0.40760  0.95130  0.23411  Biso   1.000  C
  H14      1.0000 0.38880  0.90760  0.26280  Biso   1.000  H
  H15      1.0000 0.34690  0.99120  0.22520  Biso   1.000  H
  C28      1.0000 0.53330  0.08290  0.20350  Biso   1.000  C
  H16      1.0000 0.55610  0.04200  0.17440  Biso   1.000  H
  H17      1.0000 0.47490  0.12360  0.19190  Biso   1.000  H
  C29      1.0000 0.64580  0.22350  0.19361  Biso   1.000  C
  C30      1.0000 0.59780  0.25620  0.14767  Biso   1.000  C
  H18      1.0000 0.54150  0.22160  0.13350  Biso   1.000  H
  C31      1.0000 0.63550  0.34250  0.12288  Biso   1.000  C
  C32      1.0000 0.72070  0.39120  0.14260  Biso   1.000  C
  H19      1.0000 0.74760  0.44560  0.12470  Biso   1.000  H
  C33      1.0000 0.76830  0.36020  0.18936  Biso   1.000  C
  C34      1.0000 0.73060  0.27690  0.21466  Biso   1.000  C
  H20      1.0000 0.76160  0.25620  0.24580  Biso   1.000  H
  C35      1.0000 0.58040  0.38500  0.07530  Biso   1.000  C
  C36      1.0000 0.85560  0.41770  0.21310  Biso   1.000  C
  O21      1.0000 0.12550  0.31890  0.74661  Biso   1.000  O
  O22      1.0000 0.09100  0.40300  0.81590  Biso   1.000  O
  O23      1.0000 0.36820  0.44510  0.95200  Biso   1.000  O
  O24      1.0000 0.50910  0.35870  0.94563  Biso   1.000  O
  O25      1.0000 0.48910  0.63860  0.93434  Biso   1.000  O
  O26      1.0000 0.62680  0.55210  0.95120  Biso   1.000  O
  O27      1.0000 0.89900  0.51480  0.81310  Biso   1.000  O
  O28      1.0000 0.88290  0.59630  0.74174  Biso   1.000  O
  O29      1.0000 0.44080  0.10390  0.80961  Biso   1.000  O
  O30      1.0000 0.61700  0.85690  0.77867  Biso   1.000  O
  C37      1.0000 0.14500  0.33920  0.79290  Biso   1.000  C
  C38      1.0000 0.23950  0.29840  0.82075  Biso   1.000  C
  C39      1.0000 0.27710  0.34700  0.86410  Biso   1.000  C
  H21      1.0000 0.24010  0.40020  0.87790  Biso   1.000  H
  C40      1.0000 0.37160  0.31660  0.88758  Biso   1.000  C
  C41      1.0000 0.42320  0.23630  0.86799  Biso   1.000  C
  H22      1.0000 0.48620  0.21640  0.88320  Biso   1.000  H
  C42      1.0000 0.38260  0.18280  0.82500  Biso   1.000  C
  C43      1.0000 0.29090  0.21520  0.80108  Biso   1.000  C
  H23      1.0000 0.26400  0.18170  0.77220  Biso   1.000  H
  C44      1.0000 0.41900  0.37720  0.93114  Biso   1.000  C
  C45      1.0000 0.40760  0.04870  0.76589  Biso   1.000  C
  H24      1.0000 0.38880  0.09240  0.73720  Biso   1.000  H
  H25      1.0000 0.34690  0.00880  0.77480  Biso   1.000  H
  C46      1.0000 0.53330  0.91710  0.79650  Biso   1.000  C
  H26      1.0000 0.55610  0.95800  0.82560  Biso   1.000  H
  H27      1.0000 0.47490  0.87640  0.80810  Biso   1.000  H
  C47      1.0000 0.64580  0.77650  0.80639  Biso   1.000  C
  C48      1.0000 0.59780  0.74380  0.85233  Biso   1.000  C
  H28      1.0000 0.54150  0.77840  0.86650  Biso   1.000  H
  C49      1.0000 0.63550  0.65750  0.87712  Biso   1.000  C
  C50      1.0000 0.72070  0.60880  0.85740  Biso   1.000  C
  H29      1.0000 0.74760  0.55440  0.87530  Biso   1.000  H
  C51      1.0000 0.76830  0.63980  0.81064  Biso   1.000  C
  C52      1.0000 0.73060  0.72310  0.78534  Biso   1.000  C
  H30      1.0000 0.76160  0.74380  0.75420  Biso   1.000  H
  C53      1.0000 0.58040  0.61500  0.92470  Biso   1.000  C
  C54      1.0000 0.85560  0.58230  0.78690  Biso   1.000  C
  O31      1.0000 0.87450  0.68110  0.24661  Biso   1.000  O
  O32      1.0000 0.90900  0.59700  0.31590  Biso   1.000  O
  O33      1.0000 0.63180  0.55490  0.45200  Biso   1.000  O
  O34      1.0000 0.49090  0.64130  0.44563  Biso   1.000  O
  O35      1.0000 0.51090  0.36140  0.43434  Biso   1.000  O
  O36      1.0000 0.37320  0.44790  0.45120  Biso   1.000  O
  O37      1.0000 0.10100  0.48520  0.31310  Biso   1.000  O
  O38      1.0000 0.11710  0.40370  0.24174  Biso   1.000  O
  O39      1.0000 0.55920  0.89610  0.30961  Biso   1.000  O
  O40      1.0000 0.38300  0.14310  0.27867  Biso   1.000  O
  C55      1.0000 0.85500  0.66080  0.29290  Biso   1.000  C
  C56      1.0000 0.76050  0.70160  0.32075  Biso   1.000  C
  C57      1.0000 0.72290  0.65300  0.36410  Biso   1.000  C
  H31      1.0000 0.75990  0.59980  0.37790  Biso   1.000  H
  C58      1.0000 0.62840  0.68340  0.38758  Biso   1.000  C
  C59      1.0000 0.57680  0.76370  0.36799  Biso   1.000  C
  H32      1.0000 0.51380  0.78360  0.38320  Biso   1.000  H
  C60      1.0000 0.61740  0.81720  0.32500  Biso   1.000  C
  C61      1.0000 0.70910  0.78480  0.30108  Biso   1.000  C
  H33      1.0000 0.73600  0.81830  0.27220  Biso   1.000  H
  C62      1.0000 0.58100  0.62280  0.43114  Biso   1.000  C
  C63      1.0000 0.59240  0.95130  0.26589  Biso   1.000  C
  H34      1.0000 0.61120  0.90760  0.23720  Biso   1.000  H
  H35      1.0000 0.65310  0.99120  0.27480  Biso   1.000  H
  C64      1.0000 0.46670  0.08290  0.29650  Biso   1.000  C
  H36      1.0000 0.44390  0.04200  0.32560  Biso   1.000  H
  H37      1.0000 0.52510  0.12360  0.30810  Biso   1.000  H
  C65      1.0000 0.35420  0.22350  0.30639  Biso   1.000  C
  C66      1.0000 0.40220  0.25620  0.35233  Biso   1.000  C
  H38      1.0000 0.45850  0.22160  0.36650  Biso   1.000  H
  C67      1.0000 0.36450  0.34250  0.37712  Biso   1.000  C
  C68      1.0000 0.27930  0.39120  0.35740  Biso   1.000  C
  H39      1.0000 0.25240  0.44560  0.37530  Biso   1.000  H
  C69      1.0000 0.23170  0.36020  0.31064  Biso   1.000  C
  C70      1.0000 0.26940  0.27690  0.28534  Biso   1.000  C
  H40      1.0000 0.23840  0.25620  0.25420  Biso   1.000  H
  C71      1.0000 0.41960  0.38500  0.42470  Biso   1.000  C
  C72      1.0000 0.14440  0.41770  0.28690  Biso   1.000  C
  In1      1.0000 0.00000  0.45818  0.75000  Biso   1.000  In
  In2      1.0000 0.00000  0.54182  0.25000  Biso   1.000  In
  In3      1.0000 0.50069  0.50000  0.50000  Biso   1.000  In
  In4      1.0000 0.49931  0.50000  0.00000  Biso   1.000  In
  C73      1.0000 0.50000  0.98210  0.75000  Biso   1.000  C
  C74      1.0000 0.50000  0.01790  0.25000  Biso   1.000  C
