data_image0
_cell_length_a       18.6019
_cell_length_b       18.6019
_cell_length_c       7.2745
_cell_angle_alpha    90
_cell_angle_beta     90
_cell_angle_gamma    90

_symmetry_space_group_name_H-M    "P 1"
_symmetry_int_tables_number       1

loop_
  _symmetry_equiv_pos_as_xyz
  'x, y, z'

loop_
  _atom_site_label
  _atom_site_occupancy
  _atom_site_fract_x
  _atom_site_fract_y
  _atom_site_fract_z
  _atom_site_thermal_displace_type
  _atom_site_B_iso_or_equiv
  _atom_site_type_symbol
  C1       1.0000 0.05030  0.00254  0.14115  Biso   1.000  C
  C2       1.0000 0.15881  0.12167  0.13553  Biso   1.000  C
  N1       1.0000 0.20089  0.17793  0.08376  Biso   1.000  N
  H1       1.0000 0.08468  0.00427  0.23762  Biso   1.000  H
  C3       1.0000 0.16505  0.08137  0.30538  Biso   1.000  C
  H2       1.0000 0.13944  0.02848  0.28869  Biso   1.000  H
  H3       1.0000 0.22219  0.07406  0.33954  Biso   1.000  H
  H4       1.0000 0.13827  0.11096  0.41695  Biso   1.000  H
  C4       1.0000 0.44970  0.49746  0.14115  Biso   1.000  C
  C5       1.0000 0.34119  0.37833  0.13553  Biso   1.000  C
  N2       1.0000 0.29911  0.32207  0.08376  Biso   1.000  N
  H5       1.0000 0.41532  0.49573  0.23762  Biso   1.000  H
  C6       1.0000 0.33495  0.41863  0.30538  Biso   1.000  C
  H6       1.0000 0.36056  0.47152  0.28869  Biso   1.000  H
  H7       1.0000 0.27781  0.42594  0.33954  Biso   1.000  H
  H8       1.0000 0.36173  0.38904  0.41695  Biso   1.000  H
  C7       1.0000 0.49746  0.05030  0.64115  Biso   1.000  C
  C8       1.0000 0.37833  0.15881  0.63553  Biso   1.000  C
  N3       1.0000 0.32207  0.20089  0.58376  Biso   1.000  N
  H9       1.0000 0.49573  0.08468  0.73762  Biso   1.000  H
  C9       1.0000 0.41863  0.16505  0.80538  Biso   1.000  C
  H10      1.0000 0.47152  0.13944  0.78869  Biso   1.000  H
  H11      1.0000 0.42594  0.22219  0.83954  Biso   1.000  H
  H12      1.0000 0.38904  0.13827  0.91695  Biso   1.000  H
  C10      1.0000 0.00254  0.44970  0.64115  Biso   1.000  C
  C11      1.0000 0.12167  0.34119  0.63553  Biso   1.000  C
  N4       1.0000 0.17793  0.29911  0.58376  Biso   1.000  N
  H13      1.0000 0.00427  0.41532  0.73762  Biso   1.000  H
  C12      1.0000 0.08137  0.33495  0.80538  Biso   1.000  C
  H14      1.0000 0.02848  0.36056  0.78869  Biso   1.000  H
  H15      1.0000 0.07406  0.27781  0.83954  Biso   1.000  H
  H16      1.0000 0.11096  0.36173  0.91695  Biso   1.000  H
  C13      1.0000 0.44970  0.00254  0.35885  Biso   1.000  C
  C14      1.0000 0.34119  0.12167  0.36447  Biso   1.000  C
  N5       1.0000 0.29911  0.17793  0.41624  Biso   1.000  N
  H17      1.0000 0.41532  0.00427  0.26238  Biso   1.000  H
  C15      1.0000 0.33495  0.08137  0.19462  Biso   1.000  C
  H18      1.0000 0.36056  0.02848  0.21131  Biso   1.000  H
  H19      1.0000 0.27781  0.07406  0.16046  Biso   1.000  H
  H20      1.0000 0.36173  0.11096  0.08305  Biso   1.000  H
  C16      1.0000 0.05030  0.49746  0.35885  Biso   1.000  C
  C17      1.0000 0.15881  0.37833  0.36447  Biso   1.000  C
  N6       1.0000 0.20089  0.32207  0.41624  Biso   1.000  N
  H21      1.0000 0.08468  0.49573  0.26238  Biso   1.000  H
  C18      1.0000 0.16505  0.41863  0.19462  Biso   1.000  C
  H22      1.0000 0.13944  0.47152  0.21131  Biso   1.000  H
  H23      1.0000 0.22219  0.42594  0.16046  Biso   1.000  H
  H24      1.0000 0.13827  0.38904  0.08305  Biso   1.000  H
  C19      1.0000 0.00254  0.05030  0.85885  Biso   1.000  C
  C20      1.0000 0.12167  0.15881  0.86447  Biso   1.000  C
  N7       1.0000 0.17793  0.20089  0.91624  Biso   1.000  N
  H25      1.0000 0.00427  0.08468  0.76238  Biso   1.000  H
  C21      1.0000 0.08137  0.16505  0.69462  Biso   1.000  C
  H26      1.0000 0.02848  0.13944  0.71131  Biso   1.000  H
  H27      1.0000 0.07406  0.22219  0.66046  Biso   1.000  H
  H28      1.0000 0.11096  0.13827  0.58305  Biso   1.000  H
  C22      1.0000 0.49746  0.44970  0.85885  Biso   1.000  C
  C23      1.0000 0.37833  0.34119  0.86447  Biso   1.000  C
  N8       1.0000 0.32207  0.29911  0.91624  Biso   1.000  N
  H29      1.0000 0.49573  0.41532  0.76238  Biso   1.000  H
  C24      1.0000 0.41863  0.33495  0.69462  Biso   1.000  C
  H30      1.0000 0.47152  0.36056  0.71131  Biso   1.000  H
  H31      1.0000 0.42594  0.27781  0.66046  Biso   1.000  H
  H32      1.0000 0.38904  0.36173  0.58305  Biso   1.000  H
  C25      1.0000 0.94970  0.99746  0.85885  Biso   1.000  C
  C26      1.0000 0.84119  0.87833  0.86447  Biso   1.000  C
  N9       1.0000 0.79911  0.82207  0.91624  Biso   1.000  N
  H33      1.0000 0.91532  0.99573  0.76238  Biso   1.000  H
  C27      1.0000 0.83495  0.91863  0.69462  Biso   1.000  C
  H34      1.0000 0.86056  0.97152  0.71131  Biso   1.000  H
  H35      1.0000 0.77781  0.92594  0.66046  Biso   1.000  H
  H36      1.0000 0.86173  0.88904  0.58305  Biso   1.000  H
  C28      1.0000 0.55030  0.50254  0.85885  Biso   1.000  C
  C29      1.0000 0.65881  0.62167  0.86447  Biso   1.000  C
  N10      1.0000 0.70089  0.67793  0.91624  Biso   1.000  N
  H37      1.0000 0.58468  0.50427  0.76238  Biso   1.000  H
  C30      1.0000 0.66505  0.58137  0.69462  Biso   1.000  C
  H38      1.0000 0.63944  0.52848  0.71131  Biso   1.000  H
  H39      1.0000 0.72219  0.57406  0.66046  Biso   1.000  H
  H40      1.0000 0.63827  0.61096  0.58305  Biso   1.000  H
  C31      1.0000 0.50254  0.94970  0.35885  Biso   1.000  C
  C32      1.0000 0.62167  0.84119  0.36447  Biso   1.000  C
  N11      1.0000 0.67793  0.79911  0.41624  Biso   1.000  N
  H41      1.0000 0.50427  0.91532  0.26238  Biso   1.000  H
  C33      1.0000 0.58137  0.83495  0.19462  Biso   1.000  C
  H42      1.0000 0.52848  0.86056  0.21131  Biso   1.000  H
  H43      1.0000 0.57406  0.77781  0.16046  Biso   1.000  H
  H44      1.0000 0.61096  0.86173  0.08305  Biso   1.000  H
  C34      1.0000 0.99746  0.55030  0.35885  Biso   1.000  C
  C35      1.0000 0.87833  0.65881  0.36447  Biso   1.000  C
  N12      1.0000 0.82207  0.70089  0.41624  Biso   1.000  N
  H45      1.0000 0.99573  0.58468  0.26238  Biso   1.000  H
  C36      1.0000 0.91863  0.66505  0.19462  Biso   1.000  C
  H46      1.0000 0.97152  0.63944  0.21131  Biso   1.000  H
  H47      1.0000 0.92594  0.72219  0.16046  Biso   1.000  H
  H48      1.0000 0.88904  0.63827  0.08305  Biso   1.000  H
  C37      1.0000 0.55030  0.99746  0.64115  Biso   1.000  C
  C38      1.0000 0.65881  0.87833  0.63553  Biso   1.000  C
  N13      1.0000 0.70089  0.82207  0.58376  Biso   1.000  N
  H49      1.0000 0.58468  0.99573  0.73762  Biso   1.000  H
  C39      1.0000 0.66505  0.91863  0.80538  Biso   1.000  C
  H50      1.0000 0.63944  0.97152  0.78869  Biso   1.000  H
  H51      1.0000 0.72219  0.92594  0.83954  Biso   1.000  H
  H52      1.0000 0.63827  0.88904  0.91695  Biso   1.000  H
  C40      1.0000 0.94970  0.50254  0.64115  Biso   1.000  C
  C41      1.0000 0.84119  0.62167  0.63553  Biso   1.000  C
  N14      1.0000 0.79911  0.67793  0.58376  Biso   1.000  N
  H53      1.0000 0.91532  0.50427  0.73762  Biso   1.000  H
  C42      1.0000 0.83495  0.58137  0.80538  Biso   1.000  C
  H54      1.0000 0.86056  0.52848  0.78869  Biso   1.000  H
  H55      1.0000 0.77781  0.57406  0.83954  Biso   1.000  H
  H56      1.0000 0.86173  0.61096  0.91695  Biso   1.000  H
  C43      1.0000 0.99746  0.94970  0.14115  Biso   1.000  C
  C44      1.0000 0.87833  0.84119  0.13553  Biso   1.000  C
  N15      1.0000 0.82207  0.79911  0.08376  Biso   1.000  N
  H57      1.0000 0.99573  0.91532  0.23762  Biso   1.000  H
  C45      1.0000 0.91863  0.83495  0.30538  Biso   1.000  C
  H58      1.0000 0.97152  0.86056  0.28869  Biso   1.000  H
  H59      1.0000 0.92594  0.77781  0.33954  Biso   1.000  H
  H60      1.0000 0.88904  0.86173  0.41695  Biso   1.000  H
  C46      1.0000 0.50254  0.55030  0.14115  Biso   1.000  C
  C47      1.0000 0.62167  0.65881  0.13553  Biso   1.000  C
  N16      1.0000 0.67793  0.70089  0.08376  Biso   1.000  N
  H61      1.0000 0.50427  0.58468  0.23762  Biso   1.000  H
  C48      1.0000 0.58137  0.66505  0.30538  Biso   1.000  C
  H62      1.0000 0.52848  0.63944  0.28869  Biso   1.000  H
  H63      1.0000 0.57406  0.72219  0.33954  Biso   1.000  H
  H64      1.0000 0.61096  0.63827  0.41695  Biso   1.000  H
  Co1      1.0000 0.25000  0.25000  0.25000  Biso   1.000  Co
  Co2      1.0000 0.25000  0.25000  0.75000  Biso   1.000  Co
  Co3      1.0000 0.75000  0.75000  0.75000  Biso   1.000  Co
  Co4      1.0000 0.75000  0.75000  0.25000  Biso   1.000  Co
  C49      1.0000 0.05284  0.05284  0.00000  Biso   1.000  C
  C50      1.0000 0.10986  0.10986  0.00000  Biso   1.000  C
  C51      1.0000 0.44716  0.44716  0.00000  Biso   1.000  C
  C52      1.0000 0.39014  0.39014  0.00000  Biso   1.000  C
  C53      1.0000 0.44716  0.05284  0.50000  Biso   1.000  C
  C54      1.0000 0.39014  0.10986  0.50000  Biso   1.000  C
  C55      1.0000 0.05284  0.44716  0.50000  Biso   1.000  C
  C56      1.0000 0.10986  0.39014  0.50000  Biso   1.000  C
  C57      1.0000 0.94716  0.94716  0.00000  Biso   1.000  C
  C58      1.0000 0.89014  0.89014  0.00000  Biso   1.000  C
  C59      1.0000 0.55284  0.55284  0.00000  Biso   1.000  C
  C60      1.0000 0.60986  0.60986  0.00000  Biso   1.000  C
  C61      1.0000 0.55284  0.94716  0.50000  Biso   1.000  C
  C62      1.0000 0.60986  0.89014  0.50000  Biso   1.000  C
  C63      1.0000 0.94716  0.55284  0.50000  Biso   1.000  C
  C64      1.0000 0.89014  0.60986  0.50000  Biso   1.000  C
