data_image0
_cell_length_a       8.6956
_cell_length_b       14.1289
_cell_length_c       10.9783
_cell_angle_alpha    90
_cell_angle_beta     105.047
_cell_angle_gamma    90

_symmetry_space_group_name_H-M    "P 1"
_symmetry_int_tables_number       1

loop_
  _symmetry_equiv_pos_as_xyz
  'x, y, z'

loop_
  _atom_site_label
  _atom_site_occupancy
  _atom_site_fract_x
  _atom_site_fract_y
  _atom_site_fract_z
  _atom_site_thermal_displace_type
  _atom_site_B_iso_or_equiv
  _atom_site_type_symbol
  O1       1.0000 0.26440  0.36810  0.43270  Biso   1.000  O
  O2       1.0000 0.20660  0.52190  0.42170  Biso   1.000  O
  O3       1.0000 0.49500  0.63420  0.71730  Biso   1.000  O
  O4       1.0000 0.51890  0.48200  0.67010  Biso   1.000  O
  O5       1.0000 0.02590  0.26850  0.56760  Biso   1.000  O
  O6       1.0000 0.25920  0.18990  0.60830  Biso   1.000  O
  C1       1.0000 0.22710  0.44400  0.47700  Biso   1.000  C
  C2       1.0000 0.19780  0.44180  0.61000  Biso   1.000  C
  H1       1.0000 0.08220  0.44160  0.59830  Biso   1.000  H
  C3       1.0000 0.26230  0.35150  0.68140  Biso   1.000  C
  H2       1.0000 0.37630  0.34620  0.68700  Biso   1.000  H
  C4       1.0000 0.17620  0.26360  0.61400  Biso   1.000  C
  C5       1.0000 0.26230  0.53410  0.68180  Biso   1.000  C
  H3       1.0000 0.20070  0.58700  0.63570  Biso   1.000  H
  C6       1.0000 0.43890  0.55260  0.68930  Biso   1.000  C
  C7       1.0000 0.33170  0.74400  0.34920  Biso   1.000  C
  H4       1.0000 0.38830  0.71100  0.41990  Biso   1.000  H
  C8       1.0000 0.33660  0.83990  0.35220  Biso   1.000  C
  H5       1.0000 0.39810  0.87110  0.42290  Biso   1.000  H
  C9       1.0000 0.11430  0.04940  0.19720  Biso   1.000  C
  H6       1.0000 0.01990  0.01780  0.16030  Biso   1.000  H
  C10      1.0000 0.11840  0.14950  0.19930  Biso   1.000  C
  H7       1.0000 0.02540  0.18280  0.16370  Biso   1.000  H
  C11      1.0000 0.20200  0.04510  0.14300  Biso   1.000  C
  H8       1.0000 0.16700  0.01190  0.06800  Biso   1.000  H
  C12      1.0000 0.20400  0.14520  0.14300  Biso   1.000  C
  H9       1.0000 0.17160  0.17670  0.06630  Biso   1.000  H
  O7       1.0000 0.23560  0.36810  0.06730  Biso   1.000  O
  O8       1.0000 0.29340  0.52190  0.07830  Biso   1.000  O
  O9       1.0000 0.00500  0.63420  0.78270  Biso   1.000  O
  O10      1.0000 0.98110  0.48200  0.82990  Biso   1.000  O
  O11      1.0000 0.47410  0.26850  0.93240  Biso   1.000  O
  O12      1.0000 0.24080  0.18990  0.89170  Biso   1.000  O
  C13      1.0000 0.27290  0.44400  0.02300  Biso   1.000  C
  C14      1.0000 0.30220  0.44180  0.89000  Biso   1.000  C
  H10      1.0000 0.41780  0.44160  0.90170  Biso   1.000  H
  C15      1.0000 0.23770  0.35150  0.81860  Biso   1.000  C
  H11      1.0000 0.12370  0.34620  0.81300  Biso   1.000  H
  C16      1.0000 0.32380  0.26360  0.88600  Biso   1.000  C
  C17      1.0000 0.23770  0.53410  0.81820  Biso   1.000  C
  H12      1.0000 0.29930  0.58700  0.86430  Biso   1.000  H
  C18      1.0000 0.06110  0.55260  0.81070  Biso   1.000  C
  C19      1.0000 0.16830  0.74400  0.15080  Biso   1.000  C
  H13      1.0000 0.11170  0.71100  0.08010  Biso   1.000  H
  C20      1.0000 0.16340  0.83990  0.14780  Biso   1.000  C
  H14      1.0000 0.10190  0.87110  0.07710  Biso   1.000  H
  C21      1.0000 0.38570  0.04940  0.30280  Biso   1.000  C
  H15      1.0000 0.48010  0.01780  0.33970  Biso   1.000  H
  C22      1.0000 0.38160  0.14950  0.30070  Biso   1.000  C
  H16      1.0000 0.47460  0.18280  0.33630  Biso   1.000  H
  C23      1.0000 0.29800  0.04510  0.35700  Biso   1.000  C
  H17      1.0000 0.33300  0.01190  0.43200  Biso   1.000  H
  C24      1.0000 0.29600  0.14520  0.35700  Biso   1.000  C
  H18      1.0000 0.32840  0.17670  0.43370  Biso   1.000  H
  O13      1.0000 0.73560  0.63190  0.56730  Biso   1.000  O
  O14      1.0000 0.79340  0.47810  0.57830  Biso   1.000  O
  O15      1.0000 0.50500  0.36580  0.28270  Biso   1.000  O
  O16      1.0000 0.48110  0.51800  0.32990  Biso   1.000  O
  O17      1.0000 0.97410  0.73150  0.43240  Biso   1.000  O
  O18      1.0000 0.74080  0.81010  0.39170  Biso   1.000  O
  C25      1.0000 0.77290  0.55600  0.52300  Biso   1.000  C
  C26      1.0000 0.80220  0.55820  0.39000  Biso   1.000  C
  H19      1.0000 0.91780  0.55840  0.40170  Biso   1.000  H
  C27      1.0000 0.73770  0.64850  0.31860  Biso   1.000  C
  H20      1.0000 0.62370  0.65380  0.31300  Biso   1.000  H
  C28      1.0000 0.82380  0.73640  0.38600  Biso   1.000  C
  C29      1.0000 0.73770  0.46590  0.31820  Biso   1.000  C
  H21      1.0000 0.79930  0.41300  0.36430  Biso   1.000  H
  C30      1.0000 0.56110  0.44740  0.31070  Biso   1.000  C
  C31      1.0000 0.66830  0.25600  0.65080  Biso   1.000  C
  H22      1.0000 0.61170  0.28900  0.58010  Biso   1.000  H
  C32      1.0000 0.66340  0.16010  0.64780  Biso   1.000  C
  H23      1.0000 0.60190  0.12890  0.57710  Biso   1.000  H
  C33      1.0000 0.88570  0.95060  0.80280  Biso   1.000  C
  H24      1.0000 0.98010  0.98220  0.83970  Biso   1.000  H
  C34      1.0000 0.88160  0.85050  0.80070  Biso   1.000  C
  H25      1.0000 0.97460  0.81720  0.83630  Biso   1.000  H
  C35      1.0000 0.79800  0.95490  0.85700  Biso   1.000  C
  H26      1.0000 0.83300  0.98810  0.93200  Biso   1.000  H
  C36      1.0000 0.79600  0.85480  0.85700  Biso   1.000  C
  H27      1.0000 0.82840  0.82330  0.93370  Biso   1.000  H
  O19      1.0000 0.76440  0.63190  0.93270  Biso   1.000  O
  O20      1.0000 0.70660  0.47810  0.92170  Biso   1.000  O
  O21      1.0000 0.99500  0.36580  0.21730  Biso   1.000  O
  O22      1.0000 0.01890  0.51800  0.17010  Biso   1.000  O
  O23      1.0000 0.52590  0.73150  0.06760  Biso   1.000  O
  O24      1.0000 0.75920  0.81010  0.10830  Biso   1.000  O
  C37      1.0000 0.72710  0.55600  0.97700  Biso   1.000  C
  C38      1.0000 0.69780  0.55820  0.11000  Biso   1.000  C
  H28      1.0000 0.58220  0.55840  0.09830  Biso   1.000  H
  C39      1.0000 0.76230  0.64850  0.18140  Biso   1.000  C
  H29      1.0000 0.87630  0.65380  0.18700  Biso   1.000  H
  C40      1.0000 0.67620  0.73640  0.11400  Biso   1.000  C
  C41      1.0000 0.76230  0.46590  0.18180  Biso   1.000  C
  H30      1.0000 0.70070  0.41300  0.13570  Biso   1.000  H
  C42      1.0000 0.93890  0.44740  0.18930  Biso   1.000  C
  C43      1.0000 0.83170  0.25600  0.84920  Biso   1.000  C
  H31      1.0000 0.88830  0.28900  0.91990  Biso   1.000  H
  C44      1.0000 0.83660  0.16010  0.85220  Biso   1.000  C
  H32      1.0000 0.89810  0.12890  0.92290  Biso   1.000  H
  C45      1.0000 0.61430  0.95060  0.69720  Biso   1.000  C
  H33      1.0000 0.51990  0.98220  0.66030  Biso   1.000  H
  C46      1.0000 0.61840  0.85050  0.69930  Biso   1.000  C
  H34      1.0000 0.52540  0.81720  0.66370  Biso   1.000  H
  C47      1.0000 0.70200  0.95490  0.64300  Biso   1.000  C
  H35      1.0000 0.66700  0.98810  0.56800  Biso   1.000  H
  C48      1.0000 0.70400  0.85480  0.64300  Biso   1.000  C
  H36      1.0000 0.67160  0.82330  0.56630  Biso   1.000  H
  Zn1      1.0000 0.25000  0.34127  0.25000  Biso   1.000  Zn
  Zn2      1.0000 0.25000  0.55020  0.25000  Biso   1.000  Zn
  N1       1.0000 0.25000  0.19690  0.25000  Biso   1.000  N
  N2       1.0000 0.25000  0.69480  0.25000  Biso   1.000  N
  C49      1.0000 0.25000  0.89130  0.25000  Biso   1.000  C
  C50      1.0000 0.25000  0.99930  0.25000  Biso   1.000  C
  Zn3      1.0000 0.75000  0.65873  0.75000  Biso   1.000  Zn
  Zn4      1.0000 0.75000  0.44980  0.75000  Biso   1.000  Zn
  N3       1.0000 0.75000  0.80310  0.75000  Biso   1.000  N
  N4       1.0000 0.75000  0.30520  0.75000  Biso   1.000  N
  C51      1.0000 0.75000  0.10870  0.75000  Biso   1.000  C
  C52      1.0000 0.75000  0.00070  0.75000  Biso   1.000  C
