data_image0
_cell_length_a       13.05
_cell_length_b       13.05
_cell_length_c       16.2992
_cell_angle_alpha    90
_cell_angle_beta     90
_cell_angle_gamma    120

_symmetry_space_group_name_H-M    "P 1"
_symmetry_int_tables_number       1

loop_
  _symmetry_equiv_pos_as_xyz
  'x, y, z'

loop_
  _atom_site_label
  _atom_site_occupancy
  _atom_site_fract_x
  _atom_site_fract_y
  _atom_site_fract_z
  _atom_site_thermal_displace_type
  _atom_site_B_iso_or_equiv
  _atom_site_type_symbol
  Zn1      1.0000 0.62473  0.15379  0.17710  Biso   1.000  Zn
  O1       1.0000 0.47780  0.11000  0.09370  Biso   1.000  O
  O2       1.0000 0.48050  0.28030  0.07340  Biso   1.000  O
  O3       1.0000 0.42960  0.23280  0.25960  Biso   1.000  O
  O4       1.0000 0.53110  0.13650  0.27880  Biso   1.000  O
  N1       1.0000 0.41600  0.02680  0.84350  Biso   1.000  N
  C1       1.0000 0.46890  0.18270  0.05070  Biso   1.000  C
  C2       1.0000 0.44130  0.15770  0.95910  Biso   1.000  C
  C3       1.0000 0.42940  0.23490  0.90820  Biso   1.000  C
  H1       1.0000 0.43070  0.30150  0.92980  Biso   1.000  H
  C4       1.0000 0.41530  0.21320  0.82350  Biso   1.000  C
  C5       1.0000 0.40520  0.29010  0.76770  Biso   1.000  C
  H2       1.0000 0.40310  0.35590  0.78740  Biso   1.000  H
  C6       1.0000 0.39820  0.26990  0.68520  Biso   1.000  C
  H3       1.0000 0.39010  0.32120  0.64980  Biso   1.000  H
  C7       1.0000 0.40320  0.17260  0.65300  Biso   1.000  C
  C8       1.0000 0.41030  0.09210  0.70610  Biso   1.000  C
  H4       1.0000 0.41400  0.02780  0.68490  Biso   1.000  H
  C9       1.0000 0.41200  0.10850  0.79240  Biso   1.000  C
  C10      1.0000 0.42860  0.05240  0.92430  Biso   1.000  C
  H5       1.0000 0.42900  0.99690  0.95980  Biso   1.000  H
  C11      1.0000 0.41170  0.16390  0.56270  Biso   1.000  C
  C12      1.0000 0.34500  0.19210  0.51050  Biso   1.000  C
  H6       1.0000 0.28940  0.20930  0.53210  Biso   1.000  H
  C13      1.0000 0.36120  0.19450  0.42710  Biso   1.000  C
  H7       1.0000 0.31660  0.21380  0.39260  Biso   1.000  H
  C14      1.0000 0.44400  0.16820  0.39370  Biso   1.000  C
  C15      1.0000 0.50920  0.13970  0.44590  Biso   1.000  C
  H8       1.0000 0.56560  0.12340  0.42430  Biso   1.000  H
  C16      1.0000 0.49220  0.13490  0.52820  Biso   1.000  C
  H9       1.0000 0.53460  0.11210  0.56220  Biso   1.000  H
  C17      1.0000 0.46950  0.17890  0.30300  Biso   1.000  C
  Zn2      1.0000 0.84621  0.47094  0.17710  Biso   1.000  Zn
  O5       1.0000 0.89000  0.36780  0.09370  Biso   1.000  O
  O6       1.0000 0.71970  0.20020  0.07340  Biso   1.000  O
  O7       1.0000 0.76720  0.19680  0.25960  Biso   1.000  O
  O8       1.0000 0.86350  0.39460  0.27880  Biso   1.000  O
  N2       1.0000 0.97320  0.38920  0.84350  Biso   1.000  N
  C18      1.0000 0.81730  0.28620  0.05070  Biso   1.000  C
  C19      1.0000 0.84230  0.28360  0.95910  Biso   1.000  C
  C20      1.0000 0.76510  0.19450  0.90820  Biso   1.000  C
  H10      1.0000 0.69850  0.12920  0.92980  Biso   1.000  H
  C21      1.0000 0.78680  0.20210  0.82350  Biso   1.000  C
  C22      1.0000 0.70990  0.11510  0.76770  Biso   1.000  C
  H11      1.0000 0.64410  0.04720  0.78740  Biso   1.000  H
  C23      1.0000 0.73010  0.12830  0.68520  Biso   1.000  C
  H12      1.0000 0.67880  0.06890  0.64980  Biso   1.000  H
  C24      1.0000 0.82740  0.23060  0.65300  Biso   1.000  C
  C25      1.0000 0.90790  0.31820  0.70610  Biso   1.000  C
  H13      1.0000 0.97220  0.38620  0.68490  Biso   1.000  H
  C26      1.0000 0.89150  0.30350  0.79240  Biso   1.000  C
  C27      1.0000 0.94760  0.37620  0.92430  Biso   1.000  C
  H14      1.0000 0.00310  0.43210  0.95980  Biso   1.000  H
  C28      1.0000 0.83610  0.24780  0.56270  Biso   1.000  C
  C29      1.0000 0.80790  0.15290  0.51050  Biso   1.000  C
  H15      1.0000 0.79070  0.08010  0.53210  Biso   1.000  H
  C30      1.0000 0.80550  0.16670  0.42710  Biso   1.000  C
  H16      1.0000 0.78620  0.10280  0.39260  Biso   1.000  H
  C31      1.0000 0.83180  0.27580  0.39370  Biso   1.000  C
  C32      1.0000 0.86030  0.36950  0.44590  Biso   1.000  C
  H17      1.0000 0.87660  0.44220  0.42430  Biso   1.000  H
  C33      1.0000 0.86510  0.35730  0.52820  Biso   1.000  C
  H18      1.0000 0.88790  0.42250  0.56220  Biso   1.000  H
  C34      1.0000 0.82110  0.29060  0.30300  Biso   1.000  C
  Zn3      1.0000 0.52906  0.37527  0.17710  Biso   1.000  Zn
  O9       1.0000 0.63220  0.52220  0.09370  Biso   1.000  O
  O10      1.0000 0.79980  0.51950  0.07340  Biso   1.000  O
  O11      1.0000 0.80320  0.57040  0.25960  Biso   1.000  O
  O12      1.0000 0.60540  0.46890  0.27880  Biso   1.000  O
  N3       1.0000 0.61080  0.58400  0.84350  Biso   1.000  N
  C35      1.0000 0.71380  0.53110  0.05070  Biso   1.000  C
  C36      1.0000 0.71640  0.55870  0.95910  Biso   1.000  C
  C37      1.0000 0.80550  0.57060  0.90820  Biso   1.000  C
  H19      1.0000 0.87080  0.56930  0.92980  Biso   1.000  H
  C38      1.0000 0.79790  0.58470  0.82350  Biso   1.000  C
  C39      1.0000 0.88490  0.59480  0.76770  Biso   1.000  C
  H20      1.0000 0.95280  0.59690  0.78740  Biso   1.000  H
  C40      1.0000 0.87170  0.60180  0.68520  Biso   1.000  C
  H21      1.0000 0.93110  0.60990  0.64980  Biso   1.000  H
  C41      1.0000 0.76940  0.59680  0.65300  Biso   1.000  C
  C42      1.0000 0.68180  0.58970  0.70610  Biso   1.000  C
  H22      1.0000 0.61380  0.58600  0.68490  Biso   1.000  H
  C43      1.0000 0.69650  0.58800  0.79240  Biso   1.000  C
  C44      1.0000 0.62380  0.57140  0.92430  Biso   1.000  C
  H23      1.0000 0.56790  0.57100  0.95980  Biso   1.000  H
  C45      1.0000 0.75220  0.58830  0.56270  Biso   1.000  C
  C46      1.0000 0.84710  0.65500  0.51050  Biso   1.000  C
  H24      1.0000 0.91990  0.71060  0.53210  Biso   1.000  H
  C47      1.0000 0.83330  0.63880  0.42710  Biso   1.000  C
  H25      1.0000 0.89720  0.68340  0.39260  Biso   1.000  H
  C48      1.0000 0.72420  0.55600  0.39370  Biso   1.000  C
  C49      1.0000 0.63050  0.49080  0.44590  Biso   1.000  C
  H26      1.0000 0.55780  0.43440  0.42430  Biso   1.000  H
  C50      1.0000 0.64270  0.50780  0.52820  Biso   1.000  C
  H27      1.0000 0.57750  0.46540  0.56220  Biso   1.000  H
  C51      1.0000 0.70940  0.53050  0.30300  Biso   1.000  C
  Zn4      1.0000 0.37527  0.84621  0.82290  Biso   1.000  Zn
  O13      1.0000 0.52220  0.89000  0.90630  Biso   1.000  O
  O14      1.0000 0.51950  0.71970  0.92660  Biso   1.000  O
  O15      1.0000 0.57040  0.76720  0.74040  Biso   1.000  O
  O16      1.0000 0.46890  0.86350  0.72120  Biso   1.000  O
  N4       1.0000 0.58400  0.97320  0.15650  Biso   1.000  N
  C52      1.0000 0.53110  0.81730  0.94930  Biso   1.000  C
  C53      1.0000 0.55870  0.84230  0.04090  Biso   1.000  C
  C54      1.0000 0.57060  0.76510  0.09180  Biso   1.000  C
  H28      1.0000 0.56930  0.69850  0.07020  Biso   1.000  H
  C55      1.0000 0.58470  0.78680  0.17650  Biso   1.000  C
  C56      1.0000 0.59480  0.70990  0.23230  Biso   1.000  C
  H29      1.0000 0.59690  0.64410  0.21260  Biso   1.000  H
  C57      1.0000 0.60180  0.73010  0.31480  Biso   1.000  C
  H30      1.0000 0.60990  0.67880  0.35020  Biso   1.000  H
  C58      1.0000 0.59680  0.82740  0.34700  Biso   1.000  C
  C59      1.0000 0.58970  0.90790  0.29390  Biso   1.000  C
  H31      1.0000 0.58600  0.97220  0.31510  Biso   1.000  H
  C60      1.0000 0.58800  0.89150  0.20760  Biso   1.000  C
  C61      1.0000 0.57140  0.94760  0.07570  Biso   1.000  C
  H32      1.0000 0.57100  0.00310  0.04020  Biso   1.000  H
  C62      1.0000 0.58830  0.83610  0.43730  Biso   1.000  C
  C63      1.0000 0.65500  0.80790  0.48950  Biso   1.000  C
  H33      1.0000 0.71060  0.79070  0.46790  Biso   1.000  H
  C64      1.0000 0.63880  0.80550  0.57290  Biso   1.000  C
  H34      1.0000 0.68340  0.78620  0.60740  Biso   1.000  H
  C65      1.0000 0.55600  0.83180  0.60630  Biso   1.000  C
  C66      1.0000 0.49080  0.86030  0.55410  Biso   1.000  C
  H35      1.0000 0.43440  0.87660  0.57570  Biso   1.000  H
  C67      1.0000 0.50780  0.86510  0.47180  Biso   1.000  C
  H36      1.0000 0.46540  0.88790  0.43780  Biso   1.000  H
  C68      1.0000 0.53050  0.82110  0.69700  Biso   1.000  C
  Zn5      1.0000 0.15379  0.52906  0.82290  Biso   1.000  Zn
  O17      1.0000 0.11000  0.63220  0.90630  Biso   1.000  O
  O18      1.0000 0.28030  0.79980  0.92660  Biso   1.000  O
  O19      1.0000 0.23280  0.80320  0.74040  Biso   1.000  O
  O20      1.0000 0.13650  0.60540  0.72120  Biso   1.000  O
  N5       1.0000 0.02680  0.61080  0.15650  Biso   1.000  N
  C69      1.0000 0.18270  0.71380  0.94930  Biso   1.000  C
  C70      1.0000 0.15770  0.71640  0.04090  Biso   1.000  C
  C71      1.0000 0.23490  0.80550  0.09180  Biso   1.000  C
  H37      1.0000 0.30150  0.87080  0.07020  Biso   1.000  H
  C72      1.0000 0.21320  0.79790  0.17650  Biso   1.000  C
  C73      1.0000 0.29010  0.88490  0.23230  Biso   1.000  C
  H38      1.0000 0.35590  0.95280  0.21260  Biso   1.000  H
  C74      1.0000 0.26990  0.87170  0.31480  Biso   1.000  C
  H39      1.0000 0.32120  0.93110  0.35020  Biso   1.000  H
  C75      1.0000 0.17260  0.76940  0.34700  Biso   1.000  C
  C76      1.0000 0.09210  0.68180  0.29390  Biso   1.000  C
  H40      1.0000 0.02780  0.61380  0.31510  Biso   1.000  H
  C77      1.0000 0.10850  0.69650  0.20760  Biso   1.000  C
  C78      1.0000 0.05240  0.62380  0.07570  Biso   1.000  C
  H41      1.0000 0.99690  0.56790  0.04020  Biso   1.000  H
  C79      1.0000 0.16390  0.75220  0.43730  Biso   1.000  C
  C80      1.0000 0.19210  0.84710  0.48950  Biso   1.000  C
  H42      1.0000 0.20930  0.91990  0.46790  Biso   1.000  H
  C81      1.0000 0.19450  0.83330  0.57290  Biso   1.000  C
  H43      1.0000 0.21380  0.89720  0.60740  Biso   1.000  H
  C82      1.0000 0.16820  0.72420  0.60630  Biso   1.000  C
  C83      1.0000 0.13970  0.63050  0.55410  Biso   1.000  C
  H44      1.0000 0.12340  0.55780  0.57570  Biso   1.000  H
  C84      1.0000 0.13490  0.64270  0.47180  Biso   1.000  C
  H45      1.0000 0.11210  0.57750  0.43780  Biso   1.000  H
  C85      1.0000 0.17890  0.70940  0.69700  Biso   1.000  C
  Zn6      1.0000 0.47094  0.62473  0.82290  Biso   1.000  Zn
  O21      1.0000 0.36780  0.47780  0.90630  Biso   1.000  O
  O22      1.0000 0.20020  0.48050  0.92660  Biso   1.000  O
  O23      1.0000 0.19680  0.42960  0.74040  Biso   1.000  O
  O24      1.0000 0.39460  0.53110  0.72120  Biso   1.000  O
  N6       1.0000 0.38920  0.41600  0.15650  Biso   1.000  N
  C86      1.0000 0.28620  0.46890  0.94930  Biso   1.000  C
  C87      1.0000 0.28360  0.44130  0.04090  Biso   1.000  C
  C88      1.0000 0.19450  0.42940  0.09180  Biso   1.000  C
  H46      1.0000 0.12920  0.43070  0.07020  Biso   1.000  H
  C89      1.0000 0.20210  0.41530  0.17650  Biso   1.000  C
  C90      1.0000 0.11510  0.40520  0.23230  Biso   1.000  C
  H47      1.0000 0.04720  0.40310  0.21260  Biso   1.000  H
  C91      1.0000 0.12830  0.39820  0.31480  Biso   1.000  C
  H48      1.0000 0.06890  0.39010  0.35020  Biso   1.000  H
  C92      1.0000 0.23060  0.40320  0.34700  Biso   1.000  C
  C93      1.0000 0.31820  0.41030  0.29390  Biso   1.000  C
  H49      1.0000 0.38620  0.41400  0.31510  Biso   1.000  H
  C94      1.0000 0.30350  0.41200  0.20760  Biso   1.000  C
  C95      1.0000 0.37620  0.42860  0.07570  Biso   1.000  C
  H50      1.0000 0.43210  0.42900  0.04020  Biso   1.000  H
  C96      1.0000 0.24780  0.41170  0.43730  Biso   1.000  C
  C97      1.0000 0.15290  0.34500  0.48950  Biso   1.000  C
  H51      1.0000 0.08010  0.28940  0.46790  Biso   1.000  H
  C98      1.0000 0.16670  0.36120  0.57290  Biso   1.000  C
  H52      1.0000 0.10280  0.31660  0.60740  Biso   1.000  H
  C99      1.0000 0.27580  0.44400  0.60630  Biso   1.000  C
  C100     1.0000 0.36950  0.50920  0.55410  Biso   1.000  C
  H53      1.0000 0.44220  0.56560  0.57570  Biso   1.000  H
  C101     1.0000 0.35730  0.49220  0.47180  Biso   1.000  C
  H54      1.0000 0.42250  0.53460  0.43780  Biso   1.000  H
  C102     1.0000 0.29060  0.46950  0.69700  Biso   1.000  C
  O25      1.0000 0.66667  0.33333  0.18040  Biso   1.000  O
  O26      1.0000 0.33333  0.66667  0.81960  Biso   1.000  O
