data_image0
_cell_length_a       9.9798
_cell_length_b       9.9798
_cell_length_c       23.1921
_cell_angle_alpha    90
_cell_angle_beta     90
_cell_angle_gamma    90

_symmetry_space_group_name_H-M    "P 1"
_symmetry_int_tables_number       1

loop_
  _symmetry_equiv_pos_as_xyz
  'x, y, z'

loop_
  _atom_site_label
  _atom_site_occupancy
  _atom_site_fract_x
  _atom_site_fract_y
  _atom_site_fract_z
  _atom_site_thermal_displace_type
  _atom_site_B_iso_or_equiv
  _atom_site_type_symbol
  In1      1.0000 0.00000  0.00000  0.25000  Biso   1.000  In
  In2      1.0000 0.00000  0.00000  0.75000  Biso   1.000  In
  O1       1.0000 0.00000  0.24120  0.26030  Biso   1.000  O
  O2       1.0000 0.00000  0.14260  0.17950  Biso   1.000  O
  C1       1.0000 0.00000  0.24740  0.20780  Biso   1.000  C
  C2       1.0000 0.00000  0.38060  0.17760  Biso   1.000  C
  C3       1.0000 0.00000  0.38060  0.11780  Biso   1.000  C
  H1       1.0000 0.00000  0.29940  0.09810  Biso   1.000  H
  O3       1.0000 0.00000  0.75880  0.26030  Biso   1.000  O
  O4       1.0000 0.00000  0.85740  0.17950  Biso   1.000  O
  C4       1.0000 0.00000  0.75260  0.20780  Biso   1.000  C
  C5       1.0000 0.00000  0.61940  0.17760  Biso   1.000  C
  C6       1.0000 0.00000  0.61940  0.11780  Biso   1.000  C
  H2       1.0000 0.00000  0.70060  0.09810  Biso   1.000  H
  O5       1.0000 0.75880  0.00000  0.76030  Biso   1.000  O
  O6       1.0000 0.85740  0.00000  0.67950  Biso   1.000  O
  C7       1.0000 0.75260  0.00000  0.70780  Biso   1.000  C
  C8       1.0000 0.61940  0.00000  0.67760  Biso   1.000  C
  C9       1.0000 0.61940  0.00000  0.61780  Biso   1.000  C
  H3       1.0000 0.70060  0.00000  0.59810  Biso   1.000  H
  O7       1.0000 0.24120  0.00000  0.76030  Biso   1.000  O
  O8       1.0000 0.14260  0.00000  0.67950  Biso   1.000  O
  C10      1.0000 0.24740  0.00000  0.70780  Biso   1.000  C
  C11      1.0000 0.38060  0.00000  0.67760  Biso   1.000  C
  C12      1.0000 0.38060  0.00000  0.61780  Biso   1.000  C
  H4       1.0000 0.29940  0.00000  0.59810  Biso   1.000  H
  O9       1.0000 0.00000  0.24120  0.73970  Biso   1.000  O
  O10      1.0000 0.00000  0.14260  0.82050  Biso   1.000  O
  C13      1.0000 0.00000  0.24740  0.79220  Biso   1.000  C
  C14      1.0000 0.00000  0.38060  0.82240  Biso   1.000  C
  C15      1.0000 0.00000  0.38060  0.88220  Biso   1.000  C
  H5       1.0000 0.00000  0.29940  0.90190  Biso   1.000  H
  O11      1.0000 0.00000  0.75880  0.73970  Biso   1.000  O
  O12      1.0000 0.00000  0.85740  0.82050  Biso   1.000  O
  C16      1.0000 0.00000  0.75260  0.79220  Biso   1.000  C
  C17      1.0000 0.00000  0.61940  0.82240  Biso   1.000  C
  C18      1.0000 0.00000  0.61940  0.88220  Biso   1.000  C
  H6       1.0000 0.00000  0.70060  0.90190  Biso   1.000  H
  O13      1.0000 0.24120  0.00000  0.23970  Biso   1.000  O
  O14      1.0000 0.14260  0.00000  0.32050  Biso   1.000  O
  C19      1.0000 0.24740  0.00000  0.29220  Biso   1.000  C
  C20      1.0000 0.38060  0.00000  0.32240  Biso   1.000  C
  C21      1.0000 0.38060  0.00000  0.38220  Biso   1.000  C
  H7       1.0000 0.29940  0.00000  0.40190  Biso   1.000  H
  O15      1.0000 0.75880  0.00000  0.23970  Biso   1.000  O
  O16      1.0000 0.85740  0.00000  0.32050  Biso   1.000  O
  C22      1.0000 0.75260  0.00000  0.29220  Biso   1.000  C
  C23      1.0000 0.61940  0.00000  0.32240  Biso   1.000  C
  C24      1.0000 0.61940  0.00000  0.38220  Biso   1.000  C
  H8       1.0000 0.70060  0.00000  0.40190  Biso   1.000  H
  C25      1.0000 0.00000  0.50000  0.20720  Biso   1.000  C
  H9       1.0000 0.00000  0.50000  0.24730  Biso   1.000  H
  C26      1.0000 0.00000  0.50000  0.08650  Biso   1.000  C
  C27      1.0000 0.00000  0.50000  0.02640  Biso   1.000  C
  C28      1.0000 0.50000  0.00000  0.70720  Biso   1.000  C
  H10      1.0000 0.50000  0.00000  0.74730  Biso   1.000  H
  C29      1.0000 0.50000  0.00000  0.58650  Biso   1.000  C
  C30      1.0000 0.50000  0.00000  0.52640  Biso   1.000  C
  C31      1.0000 0.00000  0.50000  0.79280  Biso   1.000  C
  H11      1.0000 0.00000  0.50000  0.75270  Biso   1.000  H
  C32      1.0000 0.00000  0.50000  0.91350  Biso   1.000  C
  C33      1.0000 0.00000  0.50000  0.97360  Biso   1.000  C
  C34      1.0000 0.50000  0.00000  0.29280  Biso   1.000  C
  H12      1.0000 0.50000  0.00000  0.25270  Biso   1.000  H
  C35      1.0000 0.50000  0.00000  0.41350  Biso   1.000  C
  C36      1.0000 0.50000  0.00000  0.47360  Biso   1.000  C
