data_image0
_cell_length_a       25.161
_cell_length_b       35.988
_cell_length_c       10.021
_cell_angle_alpha    90
_cell_angle_beta     90
_cell_angle_gamma    90

_symmetry_space_group_name_H-M    "P 1"
_symmetry_int_tables_number       1

loop_
  _symmetry_equiv_pos_as_xyz
  'x, y, z'

loop_
  _atom_site_label
  _atom_site_occupancy
  _atom_site_fract_x
  _atom_site_fract_y
  _atom_site_fract_z
  _atom_site_thermal_displace_type
  _atom_site_B_iso_or_equiv
  _atom_site_type_symbol
  O1       1.0000 0.77060  0.06653  0.85790  Biso   1.000  O
  O2       1.0000 0.69980  0.04750  0.75860  Biso   1.000  O
  O3       1.0000 0.13110  0.19168  0.75760  Biso   1.000  O
  O4       1.0000 0.06860  0.16172  0.85710  Biso   1.000  O
  C1       1.0000 0.77070  0.06760  0.61990  Biso   1.000  C
  C2       1.0000 0.82010  0.08310  0.61990  Biso   1.000  C
  H1       1.0000 0.83630  0.08860  0.70100  Biso   1.000  H
  C3       1.0000 0.74470  0.06020  0.75340  Biso   1.000  C
  C4       1.0000 0.01810  0.14700  0.61910  Biso   1.000  C
  H2       1.0000 0.00170  0.14120  0.69960  Biso   1.000  H
  C5       1.0000 0.06690  0.16430  0.61970  Biso   1.000  C
  C6       1.0000 0.09090  0.17370  0.75110  Biso   1.000  C
  O5       1.0000 0.22940  0.93347  0.85790  Biso   1.000  O
  O6       1.0000 0.30020  0.95250  0.75860  Biso   1.000  O
  O7       1.0000 0.86890  0.80832  0.75760  Biso   1.000  O
  O8       1.0000 0.93140  0.83828  0.85710  Biso   1.000  O
  C7       1.0000 0.22930  0.93240  0.61990  Biso   1.000  C
  C8       1.0000 0.17990  0.91690  0.61990  Biso   1.000  C
  H3       1.0000 0.16370  0.91140  0.70100  Biso   1.000  H
  C9       1.0000 0.25530  0.93980  0.75340  Biso   1.000  C
  C10      1.0000 0.98190  0.85300  0.61910  Biso   1.000  C
  H4       1.0000 0.99830  0.85880  0.69960  Biso   1.000  H
  C11      1.0000 0.93310  0.83570  0.61970  Biso   1.000  C
  C12      1.0000 0.90910  0.82630  0.75110  Biso   1.000  C
  O9       1.0000 0.72940  0.56653  0.14210  Biso   1.000  O
  O10      1.0000 0.80020  0.54750  0.24140  Biso   1.000  O
  O11      1.0000 0.36890  0.69168  0.24240  Biso   1.000  O
  O12      1.0000 0.43140  0.66172  0.14290  Biso   1.000  O
  C13      1.0000 0.72930  0.56760  0.38010  Biso   1.000  C
  C14      1.0000 0.67990  0.58310  0.38010  Biso   1.000  C
  H5       1.0000 0.66370  0.58860  0.29900  Biso   1.000  H
  C15      1.0000 0.75530  0.56020  0.24660  Biso   1.000  C
  C16      1.0000 0.48190  0.64700  0.38090  Biso   1.000  C
  H6       1.0000 0.49830  0.64120  0.30040  Biso   1.000  H
  C17      1.0000 0.43310  0.66430  0.38030  Biso   1.000  C
  C18      1.0000 0.40910  0.67370  0.24890  Biso   1.000  C
  O13      1.0000 0.27060  0.43347  0.14210  Biso   1.000  O
  O14      1.0000 0.19980  0.45250  0.24140  Biso   1.000  O
  O15      1.0000 0.63110  0.30832  0.24240  Biso   1.000  O
  O16      1.0000 0.56860  0.33828  0.14290  Biso   1.000  O
  C19      1.0000 0.27070  0.43240  0.38010  Biso   1.000  C
  C20      1.0000 0.32010  0.41690  0.38010  Biso   1.000  C
  H7       1.0000 0.33630  0.41140  0.29900  Biso   1.000  H
  C21      1.0000 0.24470  0.43980  0.24660  Biso   1.000  C
  C22      1.0000 0.51810  0.35300  0.38090  Biso   1.000  C
  H8       1.0000 0.50170  0.35880  0.30040  Biso   1.000  H
  C23      1.0000 0.56690  0.33570  0.38030  Biso   1.000  C
  C24      1.0000 0.59090  0.32630  0.24890  Biso   1.000  C
  O17      1.0000 0.22940  0.93347  0.14210  Biso   1.000  O
  O18      1.0000 0.30020  0.95250  0.24140  Biso   1.000  O
  O19      1.0000 0.86890  0.80832  0.24240  Biso   1.000  O
  O20      1.0000 0.93140  0.83828  0.14290  Biso   1.000  O
  C25      1.0000 0.22930  0.93240  0.38010  Biso   1.000  C
  C26      1.0000 0.17990  0.91690  0.38010  Biso   1.000  C
  H9       1.0000 0.16370  0.91140  0.29900  Biso   1.000  H
  C27      1.0000 0.25530  0.93980  0.24660  Biso   1.000  C
  C28      1.0000 0.98190  0.85300  0.38090  Biso   1.000  C
  H10      1.0000 0.99830  0.85880  0.30040  Biso   1.000  H
  C29      1.0000 0.93310  0.83570  0.38030  Biso   1.000  C
  C30      1.0000 0.90910  0.82630  0.24890  Biso   1.000  C
  O21      1.0000 0.77060  0.06653  0.14210  Biso   1.000  O
  O22      1.0000 0.69980  0.04750  0.24140  Biso   1.000  O
  O23      1.0000 0.13110  0.19168  0.24240  Biso   1.000  O
  O24      1.0000 0.06860  0.16172  0.14290  Biso   1.000  O
  C31      1.0000 0.77070  0.06760  0.38010  Biso   1.000  C
  C32      1.0000 0.82010  0.08310  0.38010  Biso   1.000  C
  H11      1.0000 0.83630  0.08860  0.29900  Biso   1.000  H
  C33      1.0000 0.74470  0.06020  0.24660  Biso   1.000  C
  C34      1.0000 0.01810  0.14700  0.38090  Biso   1.000  C
  H12      1.0000 0.00170  0.14120  0.30040  Biso   1.000  H
  C35      1.0000 0.06690  0.16430  0.38030  Biso   1.000  C
  C36      1.0000 0.09090  0.17370  0.24890  Biso   1.000  C
  O25      1.0000 0.27060  0.43347  0.85790  Biso   1.000  O
  O26      1.0000 0.19980  0.45250  0.75860  Biso   1.000  O
  O27      1.0000 0.63110  0.30832  0.75760  Biso   1.000  O
  O28      1.0000 0.56860  0.33828  0.85710  Biso   1.000  O
  C37      1.0000 0.27070  0.43240  0.61990  Biso   1.000  C
  C38      1.0000 0.32010  0.41690  0.61990  Biso   1.000  C
  H13      1.0000 0.33630  0.41140  0.70100  Biso   1.000  H
  C39      1.0000 0.24470  0.43980  0.75340  Biso   1.000  C
  C40      1.0000 0.51810  0.35300  0.61910  Biso   1.000  C
  H14      1.0000 0.50170  0.35880  0.69960  Biso   1.000  H
  C41      1.0000 0.56690  0.33570  0.61970  Biso   1.000  C
  C42      1.0000 0.59090  0.32630  0.75110  Biso   1.000  C
  O29      1.0000 0.72940  0.56653  0.85790  Biso   1.000  O
  O30      1.0000 0.80020  0.54750  0.75860  Biso   1.000  O
  O31      1.0000 0.36890  0.69168  0.75760  Biso   1.000  O
  O32      1.0000 0.43140  0.66172  0.85710  Biso   1.000  O
  C43      1.0000 0.72930  0.56760  0.61990  Biso   1.000  C
  C44      1.0000 0.67990  0.58310  0.61990  Biso   1.000  C
  H15      1.0000 0.66370  0.58860  0.70100  Biso   1.000  H
  C45      1.0000 0.75530  0.56020  0.75340  Biso   1.000  C
  C46      1.0000 0.48190  0.64700  0.61910  Biso   1.000  C
  H16      1.0000 0.49830  0.64120  0.69960  Biso   1.000  H
  C47      1.0000 0.43310  0.66430  0.61970  Biso   1.000  C
  C48      1.0000 0.40910  0.67370  0.75110  Biso   1.000  C
  In1      1.0000 0.70870  0.05030  0.00000  Biso   1.000  In
  In2      1.0000 0.62331  0.31190  0.00000  Biso   1.000  In
  O33      1.0000 0.62760  0.07400  0.00000  Biso   1.000  O
  O34      1.0000 0.68930  0.11520  0.00000  Biso   1.000  O
  O35      1.0000 0.25040  0.00882  0.00000  Biso   1.000  O
  O36      1.0000 0.33590  0.00319  0.00000  Biso   1.000  O
  O37      1.0000 0.55700  0.26680  0.00000  Biso   1.000  O
  O38      1.0000 0.64000  0.25075  0.00000  Biso   1.000  O
  O39      1.0000 0.21400  0.18344  0.00000  Biso   1.000  O
  O40      1.0000 0.16660  0.13270  0.00000  Biso   1.000  O
  C49      1.0000 0.61530  0.17470  0.00000  Biso   1.000  C
  H17      1.0000 0.65110  0.18130  0.00000  Biso   1.000  H
  C50      1.0000 0.60040  0.13690  0.00000  Biso   1.000  C
  C51      1.0000 0.54800  0.12720  0.00000  Biso   1.000  C
  H18      1.0000 0.53840  0.10220  0.00000  Biso   1.000  H
  C52      1.0000 0.50830  0.15500  0.00000  Biso   1.000  C
  C53      1.0000 0.52260  0.19170  0.00000  Biso   1.000  C
  H19      1.0000 0.49660  0.21000  0.00000  Biso   1.000  H
  C54      1.0000 0.57700  0.20170  0.00000  Biso   1.000  C
  C55      1.0000 0.64210  0.10710  0.00000  Biso   1.000  C
  C56      1.0000 0.59220  0.24230  0.00000  Biso   1.000  C
  C57      1.0000 0.45250  0.14480  0.00000  Biso   1.000  C
  C58      1.0000 0.40880  0.13480  0.00000  Biso   1.000  C
  C59      1.0000 0.25470  0.08580  0.00000  Biso   1.000  C
  H20      1.0000 0.22130  0.07480  0.00000  Biso   1.000  H
  C60      1.0000 0.26040  0.12580  0.00000  Biso   1.000  C
  C61      1.0000 0.31130  0.14140  0.00000  Biso   1.000  C
  H21      1.0000 0.31550  0.16700  0.00000  Biso   1.000  H
  C62      1.0000 0.35540  0.11840  0.00000  Biso   1.000  C
  C63      1.0000 0.35050  0.08060  0.00000  Biso   1.000  C
  H22      1.0000 0.38070  0.06570  0.00000  Biso   1.000  H
  C64      1.0000 0.29990  0.06460  0.00000  Biso   1.000  C
  C65      1.0000 0.29420  0.02300  0.00000  Biso   1.000  C
  C66      1.0000 0.21130  0.14890  0.00000  Biso   1.000  C
  In3      1.0000 0.29130  0.94969  0.00000  Biso   1.000  In
  In4      1.0000 0.37669  0.68810  0.00000  Biso   1.000  In
  O41      1.0000 0.37240  0.92600  0.00000  Biso   1.000  O
  O42      1.0000 0.31070  0.88480  0.00000  Biso   1.000  O
  O43      1.0000 0.74960  0.99118  0.00000  Biso   1.000  O
  O44      1.0000 0.66410  0.99681  0.00000  Biso   1.000  O
  O45      1.0000 0.44300  0.73320  0.00000  Biso   1.000  O
  O46      1.0000 0.36000  0.74925  0.00000  Biso   1.000  O
  O47      1.0000 0.78600  0.81656  0.00000  Biso   1.000  O
  O48      1.0000 0.83340  0.86730  0.00000  Biso   1.000  O
  C67      1.0000 0.38470  0.82530  0.00000  Biso   1.000  C
  H23      1.0000 0.34890  0.81870  0.00000  Biso   1.000  H
  C68      1.0000 0.39960  0.86310  0.00000  Biso   1.000  C
  C69      1.0000 0.45200  0.87280  0.00000  Biso   1.000  C
  H24      1.0000 0.46160  0.89780  0.00000  Biso   1.000  H
  C70      1.0000 0.49170  0.84500  0.00000  Biso   1.000  C
  C71      1.0000 0.47740  0.80830  0.00000  Biso   1.000  C
  H25      1.0000 0.50340  0.79000  0.00000  Biso   1.000  H
  C72      1.0000 0.42300  0.79830  0.00000  Biso   1.000  C
  C73      1.0000 0.35790  0.89290  0.00000  Biso   1.000  C
  C74      1.0000 0.40780  0.75770  0.00000  Biso   1.000  C
  C75      1.0000 0.54750  0.85520  0.00000  Biso   1.000  C
  C76      1.0000 0.59120  0.86520  0.00000  Biso   1.000  C
  C77      1.0000 0.74530  0.91420  0.00000  Biso   1.000  C
  H26      1.0000 0.77870  0.92520  0.00000  Biso   1.000  H
  C78      1.0000 0.73960  0.87420  0.00000  Biso   1.000  C
  C79      1.0000 0.68870  0.85860  0.00000  Biso   1.000  C
  H27      1.0000 0.68450  0.83300  0.00000  Biso   1.000  H
  C80      1.0000 0.64460  0.88160  0.00000  Biso   1.000  C
  C81      1.0000 0.64950  0.91940  0.00000  Biso   1.000  C
  H28      1.0000 0.61930  0.93430  0.00000  Biso   1.000  H
  C82      1.0000 0.70010  0.93540  0.00000  Biso   1.000  C
  C83      1.0000 0.70580  0.97700  0.00000  Biso   1.000  C
  C84      1.0000 0.78870  0.85110  0.00000  Biso   1.000  C
  In5      1.0000 0.79130  0.55030  0.00000  Biso   1.000  In
  In6      1.0000 0.87669  0.81190  0.00000  Biso   1.000  In
  O49      1.0000 0.87240  0.57400  0.00000  Biso   1.000  O
  O50      1.0000 0.81070  0.61520  0.00000  Biso   1.000  O
  O51      1.0000 0.24960  0.50882  0.00000  Biso   1.000  O
  O52      1.0000 0.16410  0.50319  0.00000  Biso   1.000  O
  O53      1.0000 0.94300  0.76680  0.00000  Biso   1.000  O
  O54      1.0000 0.86000  0.75075  0.00000  Biso   1.000  O
  O55      1.0000 0.28600  0.68344  0.00000  Biso   1.000  O
  O56      1.0000 0.33340  0.63270  0.00000  Biso   1.000  O
  C85      1.0000 0.88470  0.67470  0.00000  Biso   1.000  C
  H29      1.0000 0.84890  0.68130  0.00000  Biso   1.000  H
  C86      1.0000 0.89960  0.63690  0.00000  Biso   1.000  C
  C87      1.0000 0.95200  0.62720  0.00000  Biso   1.000  C
  H30      1.0000 0.96160  0.60220  0.00000  Biso   1.000  H
  C88      1.0000 0.99170  0.65500  0.00000  Biso   1.000  C
  C89      1.0000 0.97740  0.69170  0.00000  Biso   1.000  C
  H31      1.0000 0.00340  0.71000  0.00000  Biso   1.000  H
  C90      1.0000 0.92300  0.70170  0.00000  Biso   1.000  C
  C91      1.0000 0.85790  0.60710  0.00000  Biso   1.000  C
  C92      1.0000 0.90780  0.74230  0.00000  Biso   1.000  C
  C93      1.0000 0.04750  0.64480  0.00000  Biso   1.000  C
  C94      1.0000 0.09120  0.63480  0.00000  Biso   1.000  C
  C95      1.0000 0.24530  0.58580  0.00000  Biso   1.000  C
  H32      1.0000 0.27870  0.57480  0.00000  Biso   1.000  H
  C96      1.0000 0.23960  0.62580  0.00000  Biso   1.000  C
  C97      1.0000 0.18870  0.64140  0.00000  Biso   1.000  C
  H33      1.0000 0.18450  0.66700  0.00000  Biso   1.000  H
  C98      1.0000 0.14460  0.61840  0.00000  Biso   1.000  C
  C99      1.0000 0.14950  0.58060  0.00000  Biso   1.000  C
  H34      1.0000 0.11930  0.56570  0.00000  Biso   1.000  H
  C100     1.0000 0.20010  0.56460  0.00000  Biso   1.000  C
  C101     1.0000 0.20580  0.52300  0.00000  Biso   1.000  C
  C102     1.0000 0.28870  0.64890  0.00000  Biso   1.000  C
  In7      1.0000 0.20870  0.44969  0.00000  Biso   1.000  In
  In8      1.0000 0.12331  0.18810  0.00000  Biso   1.000  In
  O57      1.0000 0.12760  0.42600  0.00000  Biso   1.000  O
  O58      1.0000 0.18930  0.38480  0.00000  Biso   1.000  O
  O59      1.0000 0.75040  0.49118  0.00000  Biso   1.000  O
  O60      1.0000 0.83590  0.49681  0.00000  Biso   1.000  O
  O61      1.0000 0.05700  0.23320  0.00000  Biso   1.000  O
  O62      1.0000 0.14000  0.24925  0.00000  Biso   1.000  O
  O63      1.0000 0.71400  0.31656  0.00000  Biso   1.000  O
  O64      1.0000 0.66660  0.36730  0.00000  Biso   1.000  O
  C103     1.0000 0.11530  0.32530  0.00000  Biso   1.000  C
  H35      1.0000 0.15110  0.31870  0.00000  Biso   1.000  H
  C104     1.0000 0.10040  0.36310  0.00000  Biso   1.000  C
  C105     1.0000 0.04800  0.37280  0.00000  Biso   1.000  C
  H36      1.0000 0.03840  0.39780  0.00000  Biso   1.000  H
  C106     1.0000 0.00830  0.34500  0.00000  Biso   1.000  C
  C107     1.0000 0.02260  0.30830  0.00000  Biso   1.000  C
  H37      1.0000 0.99660  0.29000  0.00000  Biso   1.000  H
  C108     1.0000 0.07700  0.29830  0.00000  Biso   1.000  C
  C109     1.0000 0.14210  0.39290  0.00000  Biso   1.000  C
  C110     1.0000 0.09220  0.25770  0.00000  Biso   1.000  C
  C111     1.0000 0.95250  0.35520  0.00000  Biso   1.000  C
  C112     1.0000 0.90880  0.36520  0.00000  Biso   1.000  C
  C113     1.0000 0.75470  0.41420  0.00000  Biso   1.000  C
  H38      1.0000 0.72130  0.42520  0.00000  Biso   1.000  H
  C114     1.0000 0.76040  0.37420  0.00000  Biso   1.000  C
  C115     1.0000 0.81130  0.35860  0.00000  Biso   1.000  C
  H39      1.0000 0.81550  0.33300  0.00000  Biso   1.000  H
  C116     1.0000 0.85540  0.38160  0.00000  Biso   1.000  C
  C117     1.0000 0.85050  0.41940  0.00000  Biso   1.000  C
  H40      1.0000 0.88070  0.43430  0.00000  Biso   1.000  H
  C118     1.0000 0.79990  0.43540  0.00000  Biso   1.000  C
  C119     1.0000 0.79420  0.47700  0.00000  Biso   1.000  C
  C120     1.0000 0.71130  0.35110  0.00000  Biso   1.000  C
  C121     1.0000 0.74500  0.05960  0.50000  Biso   1.000  C
  H41      1.0000 0.71120  0.04920  0.50000  Biso   1.000  H
  C122     1.0000 0.84750  0.09090  0.50000  Biso   1.000  C
  C123     1.0000 0.89800  0.10620  0.50000  Biso   1.000  C
  C124     1.0000 0.94150  0.11970  0.50000  Biso   1.000  C
  C125     1.0000 0.99320  0.13820  0.50000  Biso   1.000  C
  C126     1.0000 0.09050  0.17350  0.50000  Biso   1.000  C
  H42      1.0000 0.12280  0.18610  0.50000  Biso   1.000  H
  C127     1.0000 0.25500  0.94040  0.50000  Biso   1.000  C
  H43      1.0000 0.28880  0.95080  0.50000  Biso   1.000  H
  C128     1.0000 0.15250  0.90910  0.50000  Biso   1.000  C
  C129     1.0000 0.10200  0.89380  0.50000  Biso   1.000  C
  C130     1.0000 0.05850  0.88030  0.50000  Biso   1.000  C
  C131     1.0000 0.00680  0.86180  0.50000  Biso   1.000  C
  C132     1.0000 0.90950  0.82650  0.50000  Biso   1.000  C
  H44      1.0000 0.87720  0.81390  0.50000  Biso   1.000  H
  C133     1.0000 0.75500  0.55960  0.50000  Biso   1.000  C
  H45      1.0000 0.78880  0.54920  0.50000  Biso   1.000  H
  C134     1.0000 0.65250  0.59090  0.50000  Biso   1.000  C
  C135     1.0000 0.60200  0.60620  0.50000  Biso   1.000  C
  C136     1.0000 0.55850  0.61970  0.50000  Biso   1.000  C
  C137     1.0000 0.50680  0.63820  0.50000  Biso   1.000  C
  C138     1.0000 0.40950  0.67350  0.50000  Biso   1.000  C
  H46      1.0000 0.37720  0.68610  0.50000  Biso   1.000  H
  C139     1.0000 0.24500  0.44040  0.50000  Biso   1.000  C
  H47      1.0000 0.21120  0.45080  0.50000  Biso   1.000  H
  C140     1.0000 0.34750  0.40910  0.50000  Biso   1.000  C
  C141     1.0000 0.39800  0.39380  0.50000  Biso   1.000  C
  C142     1.0000 0.44150  0.38030  0.50000  Biso   1.000  C
  C143     1.0000 0.49320  0.36180  0.50000  Biso   1.000  C
  C144     1.0000 0.59050  0.32650  0.50000  Biso   1.000  C
  H48      1.0000 0.62280  0.31390  0.50000  Biso   1.000  H
