data_image0
_cell_length_a       18.7794
_cell_length_b       18.7794
_cell_length_c       19.1228
_cell_angle_alpha    90
_cell_angle_beta     90
_cell_angle_gamma    120

_symmetry_space_group_name_H-M    "P 1"
_symmetry_int_tables_number       1

loop_
  _symmetry_equiv_pos_as_xyz
  'x, y, z'

loop_
  _atom_site_label
  _atom_site_occupancy
  _atom_site_fract_x
  _atom_site_fract_y
  _atom_site_fract_z
  _atom_site_thermal_displace_type
  _atom_site_B_iso_or_equiv
  _atom_site_type_symbol
  C1       1.0000 0.05200  0.72910  0.78910  Biso   1.000  C
  C2       1.0000 0.01730  0.56860  0.90610  Biso   1.000  C
  C3       1.0000 0.03510  0.62060  0.84270  Biso   1.000  C
  C4       1.0000 0.04990  0.61420  0.77310  Biso   1.000  C
  C5       1.0000 0.05610  0.55130  0.73120  Biso   1.000  C
  C6       1.0000 0.06130  0.81130  0.77570  Biso   1.000  C
  H1       1.0000 0.12100  0.85900  0.78000  Biso   1.000  H
  H2       1.0000 0.04300  0.82000  0.73300  Biso   1.000  H
  H3       1.0000 0.02700  0.82900  0.81200  Biso   1.000  H
  Cd1      1.0000 0.00147  0.71851  0.95528  Biso   1.000  Cd
  N1       1.0000 0.05990  0.68340  0.73934  Biso   1.000  N
  N2       1.0000 0.03790  0.69430  0.85192  Biso   1.000  N
  N3       1.0000 0.01620  0.49850  0.90050  Biso   1.000  N
  H4       1.0000 0.01300  0.47600  0.93500  Biso   1.000  H
  H5       1.0000 0.02800  0.48300  0.86000  Biso   1.000  H
  N4       1.0000 0.06450  0.56330  0.66410  Biso   1.000  N
  H6       1.0000 0.06700  0.52500  0.64100  Biso   1.000  H
  O1       1.0000 0.00330  0.59330  0.96277  Biso   1.000  O
  O2       1.0000 0.05170  0.48900  0.76331  Biso   1.000  O
  C7       1.0000 0.71867  0.06243  0.12243  Biso   1.000  C
  C8       1.0000 0.68397  0.90193  0.23943  Biso   1.000  C
  C9       1.0000 0.70177  0.95393  0.17603  Biso   1.000  C
  C10      1.0000 0.71657  0.94753  0.10643  Biso   1.000  C
  C11      1.0000 0.72277  0.88463  0.06453  Biso   1.000  C
  C12      1.0000 0.72797  0.14463  0.10903  Biso   1.000  C
  H7       1.0000 0.78767  0.19233  0.11333  Biso   1.000  H
  H8       1.0000 0.70967  0.15333  0.06633  Biso   1.000  H
  H9       1.0000 0.69367  0.16233  0.14533  Biso   1.000  H
  Cd2      1.0000 0.66814  0.05184  0.28861  Biso   1.000  Cd
  N5       1.0000 0.72657  0.01673  0.07267  Biso   1.000  N
  N6       1.0000 0.70457  0.02763  0.18525  Biso   1.000  N
  N7       1.0000 0.68287  0.83183  0.23383  Biso   1.000  N
  H10      1.0000 0.67967  0.80933  0.26833  Biso   1.000  H
  H11      1.0000 0.69467  0.81633  0.19333  Biso   1.000  H
  N8       1.0000 0.73117  0.89663  0.99743  Biso   1.000  N
  H12      1.0000 0.73367  0.85833  0.97433  Biso   1.000  H
  O3       1.0000 0.66997  0.92663  0.29610  Biso   1.000  O
  O4       1.0000 0.71837  0.82233  0.09664  Biso   1.000  O
  C13      1.0000 0.38533  0.39577  0.45577  Biso   1.000  C
  C14      1.0000 0.35063  0.23527  0.57277  Biso   1.000  C
  C15      1.0000 0.36843  0.28727  0.50937  Biso   1.000  C
  C16      1.0000 0.38323  0.28087  0.43977  Biso   1.000  C
  C17      1.0000 0.38943  0.21797  0.39787  Biso   1.000  C
  C18      1.0000 0.39463  0.47797  0.44237  Biso   1.000  C
  H13      1.0000 0.45433  0.52567  0.44667  Biso   1.000  H
  H14      1.0000 0.37633  0.48667  0.39967  Biso   1.000  H
  H15      1.0000 0.36033  0.49567  0.47867  Biso   1.000  H
  Cd3      1.0000 0.33480  0.38518  0.62195  Biso   1.000  Cd
  N9       1.0000 0.39323  0.35007  0.40601  Biso   1.000  N
  N10      1.0000 0.37123  0.36097  0.51859  Biso   1.000  N
  N11      1.0000 0.34953  0.16517  0.56717  Biso   1.000  N
  H16      1.0000 0.34633  0.14267  0.60167  Biso   1.000  H
  H17      1.0000 0.36133  0.14967  0.52667  Biso   1.000  H
  N12      1.0000 0.39783  0.22997  0.33077  Biso   1.000  N
  H18      1.0000 0.40033  0.19167  0.30767  Biso   1.000  H
  O5       1.0000 0.33663  0.25997  0.62944  Biso   1.000  O
  O6       1.0000 0.38503  0.15567  0.42998  Biso   1.000  O
  C19      1.0000 0.27090  0.32290  0.78910  Biso   1.000  C
  C20      1.0000 0.43140  0.44870  0.90610  Biso   1.000  C
  C21      1.0000 0.37940  0.41450  0.84270  Biso   1.000  C
  C22      1.0000 0.38580  0.43570  0.77310  Biso   1.000  C
  C23      1.0000 0.44870  0.50480  0.73120  Biso   1.000  C
  C24      1.0000 0.18870  0.25000  0.77570  Biso   1.000  C
  H19      1.0000 0.14100  0.26200  0.78000  Biso   1.000  H
  H20      1.0000 0.18000  0.22300  0.73300  Biso   1.000  H
  H21      1.0000 0.17100  0.19800  0.81200  Biso   1.000  H
  Cd4      1.0000 0.28149  0.28296  0.95528  Biso   1.000  Cd
  N13      1.0000 0.31660  0.37650  0.73934  Biso   1.000  N
  N14      1.0000 0.30570  0.34360  0.85192  Biso   1.000  N
  N15      1.0000 0.50150  0.51770  0.90050  Biso   1.000  N
  H22      1.0000 0.52400  0.53700  0.93500  Biso   1.000  H
  H23      1.0000 0.51700  0.54500  0.86000  Biso   1.000  H
  N16      1.0000 0.43670  0.50120  0.66410  Biso   1.000  N
  H24      1.0000 0.47500  0.54200  0.64100  Biso   1.000  H
  O7       1.0000 0.40670  0.41000  0.96277  Biso   1.000  O
  O8       1.0000 0.51100  0.56270  0.76331  Biso   1.000  O
  C25      1.0000 0.93757  0.65623  0.12243  Biso   1.000  C
  C26      1.0000 0.09807  0.78203  0.23943  Biso   1.000  C
  C27      1.0000 0.04607  0.74783  0.17603  Biso   1.000  C
  C28      1.0000 0.05247  0.76903  0.10643  Biso   1.000  C
  C29      1.0000 0.11537  0.83813  0.06453  Biso   1.000  C
  C30      1.0000 0.85537  0.58333  0.10903  Biso   1.000  C
  H25      1.0000 0.80767  0.59533  0.11333  Biso   1.000  H
  H26      1.0000 0.84667  0.55633  0.06633  Biso   1.000  H
  H27      1.0000 0.83767  0.53133  0.14533  Biso   1.000  H
  Cd5      1.0000 0.94816  0.61629  0.28861  Biso   1.000  Cd
  N17      1.0000 0.98327  0.70983  0.07267  Biso   1.000  N
  N18      1.0000 0.97237  0.67693  0.18525  Biso   1.000  N
  N19      1.0000 0.16817  0.85103  0.23383  Biso   1.000  N
  H28      1.0000 0.19067  0.87033  0.26833  Biso   1.000  H
  H29      1.0000 0.18367  0.87833  0.19333  Biso   1.000  H
  N20      1.0000 0.10337  0.83453  0.99743  Biso   1.000  N
  H30      1.0000 0.14167  0.87533  0.97433  Biso   1.000  H
  O9       1.0000 0.07337  0.74333  0.29610  Biso   1.000  O
  O10      1.0000 0.17767  0.89603  0.09664  Biso   1.000  O
  C31      1.0000 0.60423  0.98957  0.45577  Biso   1.000  C
  C32      1.0000 0.76473  0.11537  0.57277  Biso   1.000  C
  C33      1.0000 0.71273  0.08117  0.50937  Biso   1.000  C
  C34      1.0000 0.71913  0.10237  0.43977  Biso   1.000  C
  C35      1.0000 0.78203  0.17147  0.39787  Biso   1.000  C
  C36      1.0000 0.52203  0.91667  0.44237  Biso   1.000  C
  H31      1.0000 0.47433  0.92867  0.44667  Biso   1.000  H
  H32      1.0000 0.51333  0.88967  0.39967  Biso   1.000  H
  H33      1.0000 0.50433  0.86467  0.47867  Biso   1.000  H
  Cd6      1.0000 0.61482  0.94963  0.62195  Biso   1.000  Cd
  N21      1.0000 0.64993  0.04317  0.40601  Biso   1.000  N
  N22      1.0000 0.63903  0.01027  0.51859  Biso   1.000  N
  N23      1.0000 0.83483  0.18437  0.56717  Biso   1.000  N
  H34      1.0000 0.85733  0.20367  0.60167  Biso   1.000  H
  H35      1.0000 0.85033  0.21167  0.52667  Biso   1.000  H
  N24      1.0000 0.77003  0.16787  0.33077  Biso   1.000  N
  H36      1.0000 0.80833  0.20867  0.30767  Biso   1.000  H
  O11      1.0000 0.74003  0.07667  0.62944  Biso   1.000  O
  O12      1.0000 0.84433  0.22937  0.42998  Biso   1.000  O
  C37      1.0000 0.67710  0.94800  0.78910  Biso   1.000  C
  C38      1.0000 0.55130  0.98270  0.90610  Biso   1.000  C
  C39      1.0000 0.58550  0.96490  0.84270  Biso   1.000  C
  C40      1.0000 0.56430  0.95010  0.77310  Biso   1.000  C
  C41      1.0000 0.49520  0.94390  0.73120  Biso   1.000  C
  C42      1.0000 0.75000  0.93870  0.77570  Biso   1.000  C
  H37      1.0000 0.73800  0.87900  0.78000  Biso   1.000  H
  H38      1.0000 0.77700  0.95700  0.73300  Biso   1.000  H
  H39      1.0000 0.80200  0.97300  0.81200  Biso   1.000  H
  Cd7      1.0000 0.71704  0.99853  0.95528  Biso   1.000  Cd
  N25      1.0000 0.62350  0.94010  0.73934  Biso   1.000  N
  N26      1.0000 0.65640  0.96210  0.85192  Biso   1.000  N
  N27      1.0000 0.48230  0.98380  0.90050  Biso   1.000  N
  H40      1.0000 0.46300  0.98700  0.93500  Biso   1.000  H
  H41      1.0000 0.45500  0.97200  0.86000  Biso   1.000  H
  N28      1.0000 0.49880  0.93550  0.66410  Biso   1.000  N
  H42      1.0000 0.45800  0.93300  0.64100  Biso   1.000  H
  O13      1.0000 0.59000  0.99670  0.96277  Biso   1.000  O
  O14      1.0000 0.43730  0.94830  0.76331  Biso   1.000  O
  C43      1.0000 0.34377  0.28133  0.12243  Biso   1.000  C
  C44      1.0000 0.21797  0.31603  0.23943  Biso   1.000  C
  C45      1.0000 0.25217  0.29823  0.17603  Biso   1.000  C
  C46      1.0000 0.23097  0.28343  0.10643  Biso   1.000  C
  C47      1.0000 0.16187  0.27723  0.06453  Biso   1.000  C
  C48      1.0000 0.41667  0.27203  0.10903  Biso   1.000  C
  H43      1.0000 0.40467  0.21233  0.11333  Biso   1.000  H
  H44      1.0000 0.44367  0.29033  0.06633  Biso   1.000  H
  H45      1.0000 0.46867  0.30633  0.14533  Biso   1.000  H
  Cd8      1.0000 0.38371  0.33186  0.28861  Biso   1.000  Cd
  N29      1.0000 0.29017  0.27343  0.07267  Biso   1.000  N
  N30      1.0000 0.32307  0.29543  0.18525  Biso   1.000  N
  N31      1.0000 0.14897  0.31713  0.23383  Biso   1.000  N
  H46      1.0000 0.12967  0.32033  0.26833  Biso   1.000  H
  H47      1.0000 0.12167  0.30533  0.19333  Biso   1.000  H
  N32      1.0000 0.16547  0.26883  0.99743  Biso   1.000  N
  H48      1.0000 0.12467  0.26633  0.97433  Biso   1.000  H
  O15      1.0000 0.25667  0.33003  0.29610  Biso   1.000  O
  O16      1.0000 0.10397  0.28163  0.09664  Biso   1.000  O
  C49      1.0000 0.01043  0.61467  0.45577  Biso   1.000  C
  C50      1.0000 0.88463  0.64937  0.57277  Biso   1.000  C
  C51      1.0000 0.91883  0.63157  0.50937  Biso   1.000  C
  C52      1.0000 0.89763  0.61677  0.43977  Biso   1.000  C
  C53      1.0000 0.82853  0.61057  0.39787  Biso   1.000  C
  C54      1.0000 0.08333  0.60537  0.44237  Biso   1.000  C
  H49      1.0000 0.07133  0.54567  0.44667  Biso   1.000  H
  H50      1.0000 0.11033  0.62367  0.39967  Biso   1.000  H
  H51      1.0000 0.13533  0.63967  0.47867  Biso   1.000  H
  Cd9      1.0000 0.05037  0.66520  0.62195  Biso   1.000  Cd
  N33      1.0000 0.95683  0.60677  0.40601  Biso   1.000  N
  N34      1.0000 0.98973  0.62877  0.51859  Biso   1.000  N
  N35      1.0000 0.81563  0.65047  0.56717  Biso   1.000  N
  H52      1.0000 0.79633  0.65367  0.60167  Biso   1.000  H
  H53      1.0000 0.78833  0.63867  0.52667  Biso   1.000  H
  N36      1.0000 0.83213  0.60217  0.33077  Biso   1.000  N
  H54      1.0000 0.79133  0.59967  0.30767  Biso   1.000  H
  O17      1.0000 0.92333  0.66337  0.62944  Biso   1.000  O
  O18      1.0000 0.77063  0.61497  0.42998  Biso   1.000  O
  C55      1.0000 0.94800  0.27090  0.21090  Biso   1.000  C
  C56      1.0000 0.98270  0.43140  0.09390  Biso   1.000  C
  C57      1.0000 0.96490  0.37940  0.15730  Biso   1.000  C
  C58      1.0000 0.95010  0.38580  0.22690  Biso   1.000  C
  C59      1.0000 0.94390  0.44870  0.26880  Biso   1.000  C
  C60      1.0000 0.93870  0.18870  0.22430  Biso   1.000  C
  H55      1.0000 0.87900  0.14100  0.22000  Biso   1.000  H
  H56      1.0000 0.95700  0.18000  0.26700  Biso   1.000  H
  H57      1.0000 0.97300  0.17100  0.18800  Biso   1.000  H
  Cd10     1.0000 0.99853  0.28149  0.04472  Biso   1.000  Cd
  N37      1.0000 0.94010  0.31660  0.26066  Biso   1.000  N
  N38      1.0000 0.96210  0.30570  0.14808  Biso   1.000  N
  N39      1.0000 0.98380  0.50150  0.09950  Biso   1.000  N
  H58      1.0000 0.98700  0.52400  0.06500  Biso   1.000  H
  H59      1.0000 0.97200  0.51700  0.14000  Biso   1.000  H
  N40      1.0000 0.93550  0.43670  0.33590  Biso   1.000  N
  H60      1.0000 0.93300  0.47500  0.35900  Biso   1.000  H
  O19      1.0000 0.99670  0.40670  0.03723  Biso   1.000  O
  O20      1.0000 0.94830  0.51100  0.23669  Biso   1.000  O
  C61      1.0000 0.61467  0.60423  0.54423  Biso   1.000  C
  C62      1.0000 0.64937  0.76473  0.42723  Biso   1.000  C
  C63      1.0000 0.63157  0.71273  0.49063  Biso   1.000  C
  C64      1.0000 0.61677  0.71913  0.56023  Biso   1.000  C
  C65      1.0000 0.61057  0.78203  0.60213  Biso   1.000  C
  C66      1.0000 0.60537  0.52203  0.55763  Biso   1.000  C
  H61      1.0000 0.54567  0.47433  0.55333  Biso   1.000  H
  H62      1.0000 0.62367  0.51333  0.60033  Biso   1.000  H
  H63      1.0000 0.63967  0.50433  0.52133  Biso   1.000  H
  Cd11     1.0000 0.66520  0.61482  0.37805  Biso   1.000  Cd
  N41      1.0000 0.60677  0.64993  0.59399  Biso   1.000  N
  N42      1.0000 0.62877  0.63903  0.48141  Biso   1.000  N
  N43      1.0000 0.65047  0.83483  0.43283  Biso   1.000  N
  H64      1.0000 0.65367  0.85733  0.39833  Biso   1.000  H
  H65      1.0000 0.63867  0.85033  0.47333  Biso   1.000  H
  N44      1.0000 0.60217  0.77003  0.66923  Biso   1.000  N
  H66      1.0000 0.59967  0.80833  0.69233  Biso   1.000  H
  O21      1.0000 0.66337  0.74003  0.37056  Biso   1.000  O
  O22      1.0000 0.61497  0.84433  0.57002  Biso   1.000  O
  C67      1.0000 0.28133  0.93757  0.87757  Biso   1.000  C
  C68      1.0000 0.31603  0.09807  0.76057  Biso   1.000  C
  C69      1.0000 0.29823  0.04607  0.82397  Biso   1.000  C
  C70      1.0000 0.28343  0.05247  0.89357  Biso   1.000  C
  C71      1.0000 0.27723  0.11537  0.93547  Biso   1.000  C
  C72      1.0000 0.27203  0.85537  0.89097  Biso   1.000  C
  H67      1.0000 0.21233  0.80767  0.88667  Biso   1.000  H
  H68      1.0000 0.29033  0.84667  0.93367  Biso   1.000  H
  H69      1.0000 0.30633  0.83767  0.85467  Biso   1.000  H
  Cd12     1.0000 0.33186  0.94816  0.71139  Biso   1.000  Cd
  N45      1.0000 0.27343  0.98327  0.92733  Biso   1.000  N
  N46      1.0000 0.29543  0.97237  0.81475  Biso   1.000  N
  N47      1.0000 0.31713  0.16817  0.76617  Biso   1.000  N
  H70      1.0000 0.32033  0.19067  0.73167  Biso   1.000  H
  H71      1.0000 0.30533  0.18367  0.80667  Biso   1.000  H
  N48      1.0000 0.26883  0.10337  0.00257  Biso   1.000  N
  H72      1.0000 0.26633  0.14167  0.02567  Biso   1.000  H
  O23      1.0000 0.33003  0.07337  0.70390  Biso   1.000  O
  O24      1.0000 0.28163  0.17767  0.90336  Biso   1.000  O
  C73      1.0000 0.72910  0.67710  0.21090  Biso   1.000  C
  C74      1.0000 0.56860  0.55130  0.09390  Biso   1.000  C
  C75      1.0000 0.62060  0.58550  0.15730  Biso   1.000  C
  C76      1.0000 0.61420  0.56430  0.22690  Biso   1.000  C
  C77      1.0000 0.55130  0.49520  0.26880  Biso   1.000  C
  C78      1.0000 0.81130  0.75000  0.22430  Biso   1.000  C
  H73      1.0000 0.85900  0.73800  0.22000  Biso   1.000  H
  H74      1.0000 0.82000  0.77700  0.26700  Biso   1.000  H
  H75      1.0000 0.82900  0.80200  0.18800  Biso   1.000  H
  Cd13     1.0000 0.71851  0.71704  0.04472  Biso   1.000  Cd
  N49      1.0000 0.68340  0.62350  0.26066  Biso   1.000  N
  N50      1.0000 0.69430  0.65640  0.14808  Biso   1.000  N
  N51      1.0000 0.49850  0.48230  0.09950  Biso   1.000  N
  H76      1.0000 0.47600  0.46300  0.06500  Biso   1.000  H
  H77      1.0000 0.48300  0.45500  0.14000  Biso   1.000  H
  N52      1.0000 0.56330  0.49880  0.33590  Biso   1.000  N
  H78      1.0000 0.52500  0.45800  0.35900  Biso   1.000  H
  O25      1.0000 0.59330  0.59000  0.03723  Biso   1.000  O
  O26      1.0000 0.48900  0.43730  0.23669  Biso   1.000  O
  C79      1.0000 0.39577  0.01043  0.54423  Biso   1.000  C
  C80      1.0000 0.23527  0.88463  0.42723  Biso   1.000  C
  C81      1.0000 0.28727  0.91883  0.49063  Biso   1.000  C
  C82      1.0000 0.28087  0.89763  0.56023  Biso   1.000  C
  C83      1.0000 0.21797  0.82853  0.60213  Biso   1.000  C
  C84      1.0000 0.47797  0.08333  0.55763  Biso   1.000  C
  H79      1.0000 0.52567  0.07133  0.55333  Biso   1.000  H
  H80      1.0000 0.48667  0.11033  0.60033  Biso   1.000  H
  H81      1.0000 0.49567  0.13533  0.52133  Biso   1.000  H
  Cd14     1.0000 0.38518  0.05037  0.37805  Biso   1.000  Cd
  N53      1.0000 0.35007  0.95683  0.59399  Biso   1.000  N
  N54      1.0000 0.36097  0.98973  0.48141  Biso   1.000  N
  N55      1.0000 0.16517  0.81563  0.43283  Biso   1.000  N
  H82      1.0000 0.14267  0.79633  0.39833  Biso   1.000  H
  H83      1.0000 0.14967  0.78833  0.47333  Biso   1.000  H
  N56      1.0000 0.22997  0.83213  0.66923  Biso   1.000  N
  H84      1.0000 0.19167  0.79133  0.69233  Biso   1.000  H
  O27      1.0000 0.25997  0.92333  0.37056  Biso   1.000  O
  O28      1.0000 0.15567  0.77063  0.57002  Biso   1.000  O
  C85      1.0000 0.06243  0.34377  0.87757  Biso   1.000  C
  C86      1.0000 0.90193  0.21797  0.76057  Biso   1.000  C
  C87      1.0000 0.95393  0.25217  0.82397  Biso   1.000  C
  C88      1.0000 0.94753  0.23097  0.89357  Biso   1.000  C
  C89      1.0000 0.88463  0.16187  0.93547  Biso   1.000  C
  C90      1.0000 0.14463  0.41667  0.89097  Biso   1.000  C
  H85      1.0000 0.19233  0.40467  0.88667  Biso   1.000  H
  H86      1.0000 0.15333  0.44367  0.93367  Biso   1.000  H
  H87      1.0000 0.16233  0.46867  0.85467  Biso   1.000  H
  Cd15     1.0000 0.05184  0.38371  0.71139  Biso   1.000  Cd
  N57      1.0000 0.01673  0.29017  0.92733  Biso   1.000  N
  N58      1.0000 0.02763  0.32307  0.81475  Biso   1.000  N
  N59      1.0000 0.83183  0.14897  0.76617  Biso   1.000  N
  H88      1.0000 0.80933  0.12967  0.73167  Biso   1.000  H
  H89      1.0000 0.81633  0.12167  0.80667  Biso   1.000  H
  N60      1.0000 0.89663  0.16547  0.00257  Biso   1.000  N
  H90      1.0000 0.85833  0.12467  0.02567  Biso   1.000  H
  O29      1.0000 0.92663  0.25667  0.70390  Biso   1.000  O
  O30      1.0000 0.82233  0.10397  0.90336  Biso   1.000  O
  C91      1.0000 0.32290  0.05200  0.21090  Biso   1.000  C
  C92      1.0000 0.44870  0.01730  0.09390  Biso   1.000  C
  C93      1.0000 0.41450  0.03510  0.15730  Biso   1.000  C
  C94      1.0000 0.43570  0.04990  0.22690  Biso   1.000  C
  C95      1.0000 0.50480  0.05610  0.26880  Biso   1.000  C
  C96      1.0000 0.25000  0.06130  0.22430  Biso   1.000  C
  H91      1.0000 0.26200  0.12100  0.22000  Biso   1.000  H
  H92      1.0000 0.22300  0.04300  0.26700  Biso   1.000  H
  H93      1.0000 0.19800  0.02700  0.18800  Biso   1.000  H
  Cd16     1.0000 0.28296  0.00147  0.04472  Biso   1.000  Cd
  N61      1.0000 0.37650  0.05990  0.26066  Biso   1.000  N
  N62      1.0000 0.34360  0.03790  0.14808  Biso   1.000  N
  N63      1.0000 0.51770  0.01620  0.09950  Biso   1.000  N
  H94      1.0000 0.53700  0.01300  0.06500  Biso   1.000  H
  H95      1.0000 0.54500  0.02800  0.14000  Biso   1.000  H
  N64      1.0000 0.50120  0.06450  0.33590  Biso   1.000  N
  H96      1.0000 0.54200  0.06700  0.35900  Biso   1.000  H
  O31      1.0000 0.41000  0.00330  0.03723  Biso   1.000  O
  O32      1.0000 0.56270  0.05170  0.23669  Biso   1.000  O
  C97      1.0000 0.98957  0.38533  0.54423  Biso   1.000  C
  C98      1.0000 0.11537  0.35063  0.42723  Biso   1.000  C
  C99      1.0000 0.08117  0.36843  0.49063  Biso   1.000  C
  C100     1.0000 0.10237  0.38323  0.56023  Biso   1.000  C
  C101     1.0000 0.17147  0.38943  0.60213  Biso   1.000  C
  C102     1.0000 0.91667  0.39463  0.55763  Biso   1.000  C
  H97      1.0000 0.92867  0.45433  0.55333  Biso   1.000  H
  H98      1.0000 0.88967  0.37633  0.60033  Biso   1.000  H
  H99      1.0000 0.86467  0.36033  0.52133  Biso   1.000  H
  Cd17     1.0000 0.94963  0.33480  0.37805  Biso   1.000  Cd
  N65      1.0000 0.04317  0.39323  0.59399  Biso   1.000  N
  N66      1.0000 0.01027  0.37123  0.48141  Biso   1.000  N
  N67      1.0000 0.18437  0.34953  0.43283  Biso   1.000  N
  H100     1.0000 0.20367  0.34633  0.39833  Biso   1.000  H
  H101     1.0000 0.21167  0.36133  0.47333  Biso   1.000  H
  N68      1.0000 0.16787  0.39783  0.66923  Biso   1.000  N
  H102     1.0000 0.20867  0.40033  0.69233  Biso   1.000  H
  O33      1.0000 0.07667  0.33663  0.37056  Biso   1.000  O
  O34      1.0000 0.22937  0.38503  0.57002  Biso   1.000  O
  C103     1.0000 0.65623  0.71867  0.87757  Biso   1.000  C
  C104     1.0000 0.78203  0.68397  0.76057  Biso   1.000  C
  C105     1.0000 0.74783  0.70177  0.82397  Biso   1.000  C
  C106     1.0000 0.76903  0.71657  0.89357  Biso   1.000  C
  C107     1.0000 0.83813  0.72277  0.93547  Biso   1.000  C
  C108     1.0000 0.58333  0.72797  0.89097  Biso   1.000  C
  H103     1.0000 0.59533  0.78767  0.88667  Biso   1.000  H
  H104     1.0000 0.55633  0.70967  0.93367  Biso   1.000  H
  H105     1.0000 0.53133  0.69367  0.85467  Biso   1.000  H
  Cd18     1.0000 0.61629  0.66814  0.71139  Biso   1.000  Cd
  N69      1.0000 0.70983  0.72657  0.92733  Biso   1.000  N
  N70      1.0000 0.67693  0.70457  0.81475  Biso   1.000  N
  N71      1.0000 0.85103  0.68287  0.76617  Biso   1.000  N
  H106     1.0000 0.87033  0.67967  0.73167  Biso   1.000  H
  H107     1.0000 0.87833  0.69467  0.80667  Biso   1.000  H
  N72      1.0000 0.83453  0.73117  0.00257  Biso   1.000  N
  H108     1.0000 0.87533  0.73367  0.02567  Biso   1.000  H
  O35      1.0000 0.74333  0.66997  0.70390  Biso   1.000  O
  O36      1.0000 0.89603  0.71837  0.90336  Biso   1.000  O
