data_image0
_cell_length_a       21.593
_cell_length_b       21.593
_cell_length_c       9.3672
_cell_angle_alpha    90
_cell_angle_beta     90
_cell_angle_gamma    120

_symmetry_space_group_name_H-M    "P 1"
_symmetry_int_tables_number       1

loop_
  _symmetry_equiv_pos_as_xyz
  'x, y, z'

loop_
  _atom_site_label
  _atom_site_occupancy
  _atom_site_fract_x
  _atom_site_fract_y
  _atom_site_fract_z
  _atom_site_thermal_displace_type
  _atom_site_B_iso_or_equiv
  _atom_site_type_symbol
  O1       1.0000 0.92640  0.52740  0.10810  Biso   1.000  O
  O2       1.0000 0.92500  0.52680  0.89150  Biso   1.000  O
  C1       1.0000 0.89240  0.52790  0.00230  Biso   1.000  C
  C2       1.0000 0.82690  0.54020  0.99150  Biso   1.000  C
  C3       1.0000 0.80130  0.53830  0.12640  Biso   1.000  C
  C4       1.0000 0.80150  0.54060  0.85850  Biso   1.000  C
  C5       1.0000 0.06490  0.55540  0.41960  Biso   1.000  C
  C6       1.0000 0.93160  0.44340  0.41930  Biso   1.000  C
  C7       1.0000 0.99690  0.44160  0.42220  Biso   1.000  C
  O3       1.0000 0.47260  0.39900  0.10810  Biso   1.000  O
  O4       1.0000 0.47320  0.39820  0.89150  Biso   1.000  O
  C8       1.0000 0.47210  0.36450  0.00230  Biso   1.000  C
  C9       1.0000 0.45980  0.28670  0.99150  Biso   1.000  C
  C10      1.0000 0.46170  0.26300  0.12640  Biso   1.000  C
  C11      1.0000 0.45940  0.26090  0.85850  Biso   1.000  C
  C12      1.0000 0.44460  0.50950  0.41960  Biso   1.000  C
  C13      1.0000 0.55660  0.48820  0.41930  Biso   1.000  C
  C14      1.0000 0.55840  0.55530  0.42220  Biso   1.000  C
  O5       1.0000 0.60100  0.07360  0.10810  Biso   1.000  O
  O6       1.0000 0.60180  0.07500  0.89150  Biso   1.000  O
  C15      1.0000 0.63550  0.10760  0.00230  Biso   1.000  C
  C16      1.0000 0.71330  0.17310  0.99150  Biso   1.000  C
  C17      1.0000 0.73700  0.19870  0.12640  Biso   1.000  C
  C18      1.0000 0.73910  0.19850  0.85850  Biso   1.000  C
  C19      1.0000 0.49050  0.93510  0.41960  Biso   1.000  C
  C20      1.0000 0.51180  0.06840  0.41930  Biso   1.000  C
  C21      1.0000 0.44470  0.00310  0.42220  Biso   1.000  C
  O7       1.0000 0.52740  0.92640  0.89190  Biso   1.000  O
  O8       1.0000 0.52680  0.92500  0.10850  Biso   1.000  O
  C22      1.0000 0.52790  0.89240  0.99770  Biso   1.000  C
  C23      1.0000 0.54020  0.82690  0.00850  Biso   1.000  C
  C24      1.0000 0.53830  0.80130  0.87360  Biso   1.000  C
  C25      1.0000 0.54060  0.80150  0.14150  Biso   1.000  C
  C26      1.0000 0.55540  0.06490  0.58040  Biso   1.000  C
  C27      1.0000 0.44340  0.93160  0.58070  Biso   1.000  C
  C28      1.0000 0.44160  0.99690  0.57780  Biso   1.000  C
  O9       1.0000 0.39900  0.47260  0.89190  Biso   1.000  O
  O10      1.0000 0.39820  0.47320  0.10850  Biso   1.000  O
  C29      1.0000 0.36450  0.47210  0.99770  Biso   1.000  C
  C30      1.0000 0.28670  0.45980  0.00850  Biso   1.000  C
  C31      1.0000 0.26300  0.46170  0.87360  Biso   1.000  C
  C32      1.0000 0.26090  0.45940  0.14150  Biso   1.000  C
  C33      1.0000 0.50950  0.44460  0.58040  Biso   1.000  C
  C34      1.0000 0.48820  0.55660  0.58070  Biso   1.000  C
  C35      1.0000 0.55530  0.55840  0.57780  Biso   1.000  C
  O11      1.0000 0.07360  0.60100  0.89190  Biso   1.000  O
  O12      1.0000 0.07500  0.60180  0.10850  Biso   1.000  O
  C36      1.0000 0.10760  0.63550  0.99770  Biso   1.000  C
  C37      1.0000 0.17310  0.71330  0.00850  Biso   1.000  C
  C38      1.0000 0.19870  0.73700  0.87360  Biso   1.000  C
  C39      1.0000 0.19850  0.73910  0.14150  Biso   1.000  C
  C40      1.0000 0.93510  0.49050  0.58040  Biso   1.000  C
  C41      1.0000 0.06840  0.51180  0.58070  Biso   1.000  C
  C42      1.0000 0.00310  0.44470  0.57780  Biso   1.000  C
  O13      1.0000 0.07360  0.47260  0.89190  Biso   1.000  O
  O14      1.0000 0.07500  0.47320  0.10850  Biso   1.000  O
  C43      1.0000 0.10760  0.47210  0.99770  Biso   1.000  C
  C44      1.0000 0.17310  0.45980  0.00850  Biso   1.000  C
  C45      1.0000 0.19870  0.46170  0.87360  Biso   1.000  C
  C46      1.0000 0.19850  0.45940  0.14150  Biso   1.000  C
  C47      1.0000 0.93510  0.44460  0.58040  Biso   1.000  C
  C48      1.0000 0.06840  0.55660  0.58070  Biso   1.000  C
  C49      1.0000 0.00310  0.55840  0.57780  Biso   1.000  C
  O15      1.0000 0.52740  0.60100  0.89190  Biso   1.000  O
  O16      1.0000 0.52680  0.60180  0.10850  Biso   1.000  O
  C50      1.0000 0.52790  0.63550  0.99770  Biso   1.000  C
  C51      1.0000 0.54020  0.71330  0.00850  Biso   1.000  C
  C52      1.0000 0.53830  0.73700  0.87360  Biso   1.000  C
  C53      1.0000 0.54060  0.73910  0.14150  Biso   1.000  C
  C54      1.0000 0.55540  0.49050  0.58040  Biso   1.000  C
  C55      1.0000 0.44340  0.51180  0.58070  Biso   1.000  C
  C56      1.0000 0.44160  0.44470  0.57780  Biso   1.000  C
  O17      1.0000 0.39900  0.92640  0.89190  Biso   1.000  O
  O18      1.0000 0.39820  0.92500  0.10850  Biso   1.000  O
  C57      1.0000 0.36450  0.89240  0.99770  Biso   1.000  C
  C58      1.0000 0.28670  0.82690  0.00850  Biso   1.000  C
  C59      1.0000 0.26300  0.80130  0.87360  Biso   1.000  C
  C60      1.0000 0.26090  0.80150  0.14150  Biso   1.000  C
  C61      1.0000 0.50950  0.06490  0.58040  Biso   1.000  C
  C62      1.0000 0.48820  0.93160  0.58070  Biso   1.000  C
  C63      1.0000 0.55530  0.99690  0.57780  Biso   1.000  C
  O19      1.0000 0.47260  0.07360  0.10810  Biso   1.000  O
  O20      1.0000 0.47320  0.07500  0.89150  Biso   1.000  O
  C64      1.0000 0.47210  0.10760  0.00230  Biso   1.000  C
  C65      1.0000 0.45980  0.17310  0.99150  Biso   1.000  C
  C66      1.0000 0.46170  0.19870  0.12640  Biso   1.000  C
  C67      1.0000 0.45940  0.19850  0.85850  Biso   1.000  C
  C68      1.0000 0.44460  0.93510  0.41960  Biso   1.000  C
  C69      1.0000 0.55660  0.06840  0.41930  Biso   1.000  C
  C70      1.0000 0.55840  0.00310  0.42220  Biso   1.000  C
  O21      1.0000 0.60100  0.52740  0.10810  Biso   1.000  O
  O22      1.0000 0.60180  0.52680  0.89150  Biso   1.000  O
  C71      1.0000 0.63550  0.52790  0.00230  Biso   1.000  C
  C72      1.0000 0.71330  0.54020  0.99150  Biso   1.000  C
  C73      1.0000 0.73700  0.53830  0.12640  Biso   1.000  C
  C74      1.0000 0.73910  0.54060  0.85850  Biso   1.000  C
  C75      1.0000 0.49050  0.55540  0.41960  Biso   1.000  C
  C76      1.0000 0.51180  0.44340  0.41930  Biso   1.000  C
  C77      1.0000 0.44470  0.44160  0.42220  Biso   1.000  C
  O23      1.0000 0.92640  0.39900  0.10810  Biso   1.000  O
  O24      1.0000 0.92500  0.39820  0.89150  Biso   1.000  O
  C78      1.0000 0.89240  0.36450  0.00230  Biso   1.000  C
  C79      1.0000 0.82690  0.28670  0.99150  Biso   1.000  C
  C80      1.0000 0.80130  0.26300  0.12640  Biso   1.000  C
  C81      1.0000 0.80150  0.26090  0.85850  Biso   1.000  C
  C82      1.0000 0.06490  0.50950  0.41960  Biso   1.000  C
  C83      1.0000 0.93160  0.48820  0.41930  Biso   1.000  C
  C84      1.0000 0.99690  0.55530  0.42220  Biso   1.000  C
  Ni1      1.0000 0.00000  0.50000  0.13820  Biso   1.000  Ni
  N1       1.0000 0.00000  0.50000  0.35610  Biso   1.000  N
  Ni2      1.0000 0.50000  0.50000  0.13820  Biso   1.000  Ni
  N2       1.0000 0.50000  0.50000  0.35610  Biso   1.000  N
  Ni3      1.0000 0.50000  0.00000  0.13820  Biso   1.000  Ni
  N3       1.0000 0.50000  0.00000  0.35610  Biso   1.000  N
  Ni4      1.0000 0.50000  0.00000  0.86180  Biso   1.000  Ni
  N4       1.0000 0.50000  0.00000  0.64390  Biso   1.000  N
  Ni5      1.0000 0.50000  0.50000  0.86180  Biso   1.000  Ni
  N5       1.0000 0.50000  0.50000  0.64390  Biso   1.000  N
  Ni6      1.0000 0.00000  0.50000  0.86180  Biso   1.000  Ni
  N6       1.0000 0.00000  0.50000  0.64390  Biso   1.000  N
