data_image0
_cell_length_a       16.016
_cell_length_b       8.9028
_cell_length_c       17.642
_cell_angle_alpha    90
_cell_angle_beta     102.93
_cell_angle_gamma    90

_symmetry_space_group_name_H-M    "P 1"
_symmetry_int_tables_number       1

loop_
  _symmetry_equiv_pos_as_xyz
  'x, y, z'

loop_
  _atom_site_label
  _atom_site_occupancy
  _atom_site_fract_x
  _atom_site_fract_y
  _atom_site_fract_z
  _atom_site_thermal_displace_type
  _atom_site_B_iso_or_equiv
  _atom_site_type_symbol
  O1       1.0000 0.42410  0.16860  0.02910  Biso   1.000  O
  O2       1.0000 0.42570  0.17520  0.15550  Biso   1.000  O
  C1       1.0000 0.34480  0.35790  0.07270  Biso   1.000  C
  H1       1.0000 0.31430  0.35850  0.01790  Biso   1.000  H
  C2       1.0000 0.40170  0.22300  0.08600  Biso   1.000  C
  C3       1.0000 0.27850  0.36020  0.12270  Biso   1.000  C
  H2       1.0000 0.24280  0.27130  0.11200  Biso   1.000  H
  H3       1.0000 0.30740  0.35850  0.17720  Biso   1.000  H
  C4       1.0000 0.93780  0.57200  0.40330  Biso   1.000  C
  C5       1.0000 0.94100  0.57100  0.32560  Biso   1.000  C
  O3       1.0000 0.92410  0.66860  0.02910  Biso   1.000  O
  O4       1.0000 0.92570  0.67520  0.15550  Biso   1.000  O
  C6       1.0000 0.84480  0.85790  0.07270  Biso   1.000  C
  H4       1.0000 0.81430  0.85850  0.01790  Biso   1.000  H
  C7       1.0000 0.90170  0.72300  0.08600  Biso   1.000  C
  C8       1.0000 0.77850  0.86020  0.12270  Biso   1.000  C
  H5       1.0000 0.74280  0.77130  0.11200  Biso   1.000  H
  H6       1.0000 0.80740  0.85850  0.17720  Biso   1.000  H
  C9       1.0000 0.43780  0.07200  0.40330  Biso   1.000  C
  C10      1.0000 0.44100  0.07100  0.32560  Biso   1.000  C
  O5       1.0000 0.57590  0.16860  0.97090  Biso   1.000  O
  O6       1.0000 0.57430  0.17520  0.84450  Biso   1.000  O
  C11      1.0000 0.65520  0.35790  0.92730  Biso   1.000  C
  H7       1.0000 0.68570  0.35850  0.98210  Biso   1.000  H
  C12      1.0000 0.59830  0.22300  0.91400  Biso   1.000  C
  C13      1.0000 0.72150  0.36020  0.87730  Biso   1.000  C
  H8       1.0000 0.75720  0.27130  0.88800  Biso   1.000  H
  H9       1.0000 0.69260  0.35850  0.82280  Biso   1.000  H
  C14      1.0000 0.06220  0.57200  0.59670  Biso   1.000  C
  C15      1.0000 0.05900  0.57100  0.67440  Biso   1.000  C
  O7       1.0000 0.07590  0.66860  0.97090  Biso   1.000  O
  O8       1.0000 0.07430  0.67520  0.84450  Biso   1.000  O
  C16      1.0000 0.15520  0.85790  0.92730  Biso   1.000  C
  H10      1.0000 0.18570  0.85850  0.98210  Biso   1.000  H
  C17      1.0000 0.09830  0.72300  0.91400  Biso   1.000  C
  C18      1.0000 0.22150  0.86020  0.87730  Biso   1.000  C
  H11      1.0000 0.25720  0.77130  0.88800  Biso   1.000  H
  H12      1.0000 0.19260  0.85850  0.82280  Biso   1.000  H
  C19      1.0000 0.56220  0.07200  0.59670  Biso   1.000  C
  C20      1.0000 0.55900  0.07100  0.67440  Biso   1.000  C
  O9       1.0000 0.57590  0.83140  0.97090  Biso   1.000  O
  O10      1.0000 0.57430  0.82480  0.84450  Biso   1.000  O
  C21      1.0000 0.65520  0.64210  0.92730  Biso   1.000  C
  H13      1.0000 0.68570  0.64150  0.98210  Biso   1.000  H
  C22      1.0000 0.59830  0.77700  0.91400  Biso   1.000  C
  C23      1.0000 0.72150  0.63980  0.87730  Biso   1.000  C
  H14      1.0000 0.75720  0.72870  0.88800  Biso   1.000  H
  H15      1.0000 0.69260  0.64150  0.82280  Biso   1.000  H
  C24      1.0000 0.06220  0.42800  0.59670  Biso   1.000  C
  C25      1.0000 0.05900  0.42900  0.67440  Biso   1.000  C
  O11      1.0000 0.07590  0.33140  0.97090  Biso   1.000  O
  O12      1.0000 0.07430  0.32480  0.84450  Biso   1.000  O
  C26      1.0000 0.15520  0.14210  0.92730  Biso   1.000  C
  H16      1.0000 0.18570  0.14150  0.98210  Biso   1.000  H
  C27      1.0000 0.09830  0.27700  0.91400  Biso   1.000  C
  C28      1.0000 0.22150  0.13980  0.87730  Biso   1.000  C
  H17      1.0000 0.25720  0.22870  0.88800  Biso   1.000  H
  H18      1.0000 0.19260  0.14150  0.82280  Biso   1.000  H
  C29      1.0000 0.56220  0.92800  0.59670  Biso   1.000  C
  C30      1.0000 0.55900  0.92900  0.67440  Biso   1.000  C
  O13      1.0000 0.42410  0.83140  0.02910  Biso   1.000  O
  O14      1.0000 0.42570  0.82480  0.15550  Biso   1.000  O
  C31      1.0000 0.34480  0.64210  0.07270  Biso   1.000  C
  H19      1.0000 0.31430  0.64150  0.01790  Biso   1.000  H
  C32      1.0000 0.40170  0.77700  0.08600  Biso   1.000  C
  C33      1.0000 0.27850  0.63980  0.12270  Biso   1.000  C
  H20      1.0000 0.24280  0.72870  0.11200  Biso   1.000  H
  H21      1.0000 0.30740  0.64150  0.17720  Biso   1.000  H
  C34      1.0000 0.93780  0.42800  0.40330  Biso   1.000  C
  C35      1.0000 0.94100  0.42900  0.32560  Biso   1.000  C
  O15      1.0000 0.92410  0.33140  0.02910  Biso   1.000  O
  O16      1.0000 0.92570  0.32480  0.15550  Biso   1.000  O
  C36      1.0000 0.84480  0.14210  0.07270  Biso   1.000  C
  H22      1.0000 0.81430  0.14150  0.01790  Biso   1.000  H
  C37      1.0000 0.90170  0.27700  0.08600  Biso   1.000  C
  C38      1.0000 0.77850  0.13980  0.12270  Biso   1.000  C
  H23      1.0000 0.74280  0.22870  0.11200  Biso   1.000  H
  H24      1.0000 0.80740  0.14150  0.17720  Biso   1.000  H
  C39      1.0000 0.43780  0.92800  0.40330  Biso   1.000  C
  C40      1.0000 0.44100  0.92900  0.32560  Biso   1.000  C
  Zn1      1.0000 0.00000  0.50000  0.00000  Biso   1.000  Zn
  Zn2      1.0000 0.50000  0.00000  0.00000  Biso   1.000  Zn
  Zn3      1.0000 0.99776  0.50000  0.18549  Biso   1.000  Zn
  N1       1.0000 0.00560  0.50000  0.30130  Biso   1.000  N
  O17      1.0000 0.07780  0.50000  0.11700  Biso   1.000  O
  O18      1.0000 0.17310  0.50000  0.22270  Biso   1.000  O
  C41      1.0000 0.40030  0.50000  0.08790  Biso   1.000  C
  H25      1.0000 0.43260  0.50000  0.14140  Biso   1.000  H
  H26      1.0000 0.44080  0.50000  0.05440  Biso   1.000  H
  C42      1.0000 0.22260  0.50000  0.10600  Biso   1.000  C
  H27      1.0000 0.19450  0.50000  0.05060  Biso   1.000  H
  C43      1.0000 0.15430  0.50000  0.15200  Biso   1.000  C
  C44      1.0000 0.00060  0.50000  0.45780  Biso   1.000  C
  C45      1.0000 0.07440  0.50000  0.35650  Biso   1.000  C
  H28      1.0000 0.12720  0.50000  0.34290  Biso   1.000  H
  C46      1.0000 0.07300  0.50000  0.43390  Biso   1.000  C
  H29      1.0000 0.12470  0.50000  0.47070  Biso   1.000  H
  Zn4      1.0000 0.49776  0.00000  0.18549  Biso   1.000  Zn
  N2       1.0000 0.50560  0.00000  0.30130  Biso   1.000  N
  O19      1.0000 0.57780  0.00000  0.11700  Biso   1.000  O
  O20      1.0000 0.67310  0.00000  0.22270  Biso   1.000  O
  C47      1.0000 0.90030  0.00000  0.08790  Biso   1.000  C
  H30      1.0000 0.93260  0.00000  0.14140  Biso   1.000  H
  H31      1.0000 0.94080  0.00000  0.05440  Biso   1.000  H
  C48      1.0000 0.72260  0.00000  0.10600  Biso   1.000  C
  H32      1.0000 0.69450  0.00000  0.05060  Biso   1.000  H
  C49      1.0000 0.65430  0.00000  0.15200  Biso   1.000  C
  C50      1.0000 0.50060  0.00000  0.45780  Biso   1.000  C
  C51      1.0000 0.57440  0.00000  0.35650  Biso   1.000  C
  H33      1.0000 0.62720  0.00000  0.34290  Biso   1.000  H
  C52      1.0000 0.57300  0.00000  0.43390  Biso   1.000  C
  H34      1.0000 0.62470  0.00000  0.47070  Biso   1.000  H
  Zn5      1.0000 0.00224  0.50000  0.81451  Biso   1.000  Zn
  N3       1.0000 0.99440  0.50000  0.69870  Biso   1.000  N
  O21      1.0000 0.92220  0.50000  0.88300  Biso   1.000  O
  O22      1.0000 0.82690  0.50000  0.77730  Biso   1.000  O
  C53      1.0000 0.59970  0.50000  0.91210  Biso   1.000  C
  H35      1.0000 0.56740  0.50000  0.85860  Biso   1.000  H
  H36      1.0000 0.55920  0.50000  0.94560  Biso   1.000  H
  C54      1.0000 0.77740  0.50000  0.89400  Biso   1.000  C
  H37      1.0000 0.80550  0.50000  0.94940  Biso   1.000  H
  C55      1.0000 0.84570  0.50000  0.84800  Biso   1.000  C
  C56      1.0000 0.99940  0.50000  0.54220  Biso   1.000  C
  C57      1.0000 0.92560  0.50000  0.64350  Biso   1.000  C
  H38      1.0000 0.87280  0.50000  0.65710  Biso   1.000  H
  C58      1.0000 0.92700  0.50000  0.56610  Biso   1.000  C
  H39      1.0000 0.87530  0.50000  0.52930  Biso   1.000  H
  Zn6      1.0000 0.50224  0.00000  0.81451  Biso   1.000  Zn
  N4       1.0000 0.49440  0.00000  0.69870  Biso   1.000  N
  O23      1.0000 0.42220  0.00000  0.88300  Biso   1.000  O
  O24      1.0000 0.32690  0.00000  0.77730  Biso   1.000  O
  C59      1.0000 0.09970  0.00000  0.91210  Biso   1.000  C
  H40      1.0000 0.06740  0.00000  0.85860  Biso   1.000  H
  H41      1.0000 0.05920  0.00000  0.94560  Biso   1.000  H
  C60      1.0000 0.27740  0.00000  0.89400  Biso   1.000  C
  H42      1.0000 0.30550  0.00000  0.94940  Biso   1.000  H
  C61      1.0000 0.34570  0.00000  0.84800  Biso   1.000  C
  C62      1.0000 0.49940  0.00000  0.54220  Biso   1.000  C
  C63      1.0000 0.42560  0.00000  0.64350  Biso   1.000  C
  H43      1.0000 0.37280  0.00000  0.65710  Biso   1.000  H
  C64      1.0000 0.42700  0.00000  0.56610  Biso   1.000  C
  H44      1.0000 0.37530  0.00000  0.52930  Biso   1.000  H
