data_HISFUM_clean
_audit_creation_date              2015-10-16
_audit_creation_method            'Materials Studio'
_symmetry_space_group_name_H-M    'P1'
_symmetry_Int_Tables_number       1
_symmetry_cell_setting            triclinic
loop_
_symmetry_equiv_pos_as_xyz
  x,y,z
_cell_length_a                    6.0616
_cell_length_b                    10.9133
_cell_length_c                    12.8782
_cell_angle_alpha                 72.0170
_cell_angle_beta                  79.4180
_cell_angle_gamma                 78.1430
loop_
_atom_site_label
_atom_site_type_symbol
_atom_site_fract_x
_atom_site_fract_y
_atom_site_fract_z
_atom_site_U_iso_or_equiv
_atom_site_adp_type
_atom_site_occupancy
Na1    Na    0.40810   0.42159   0.42480   0.01267  Uiso   1.00
Na2    Na    0.91360   0.52826   0.34525   0.01267  Uiso   1.00
Na3    Na    0.59190   0.57841   0.57520   0.01267  Uiso   1.00
Na4    Na    0.08640   0.47174   0.65475   0.01267  Uiso   1.00
H1     H     0.80070   0.90490   0.42250   0.01267  Uiso   1.00
H2     H     0.84710   0.63380   0.10070   0.01267  Uiso   1.00
H3     H     0.47740   0.98900   0.71330   0.01267  Uiso   1.00
H4     H     0.22000   0.65950   0.03910   0.01267  Uiso   1.00
H5     H     0.65870   0.27960   0.14860   0.01267  Uiso   1.00
H6     H     0.52260   0.01100   0.28670   0.01267  Uiso   1.00
H7     H     0.97120   0.69030   0.91320   0.01267  Uiso   1.00
H8     H     0.47620   0.79410   0.35960   0.01267  Uiso   1.00
H9     H     0.78000   0.34050   0.96090   0.01267  Uiso   1.00
H10    H     0.52380   0.20590   0.64040   0.01267  Uiso   1.00
H11    H     0.02880   0.30970   0.08680   0.01267  Uiso   1.00
H12    H     0.84690   0.12300   0.35260   0.01267  Uiso   1.00
H13    H     0.19930   0.09510   0.57750   0.01267  Uiso   1.00
H14    H     0.15310   0.87700   0.64740   0.01267  Uiso   1.00
H15    H     0.15290   0.36620   0.89930   0.01267  Uiso   1.00
H16    H     0.34130   0.72040   0.85140   0.01267  Uiso   1.00
C1     C     0.97190   0.05700   0.35500   0.01267  Uiso   1.00
C2     C     0.18150   0.31500   0.06170   0.01267  Uiso   1.00
C3     C     0.19080   0.08620   0.31630   0.01267  Uiso   1.00
C4     C     0.25590   0.34970   0.94920   0.01267  Uiso   1.00
C5     C     0.62770   0.33380   0.98590   0.01267  Uiso   1.00
C6     C     0.94540   0.92660   0.39700   0.01267  Uiso   1.00
C7     C     0.02810   0.94300   0.64500   0.01267  Uiso   1.00
C8     C     0.44520   0.59270   0.21150   0.01267  Uiso   1.00
C9     C     0.05460   0.07340   0.60300   0.01267  Uiso   1.00
C10    C     0.81850   0.68500   0.93830   0.01267  Uiso   1.00
C11    C     0.62100   0.01080   0.68420   0.01267  Uiso   1.00
C12    C     0.10320   0.68770   0.45610   0.01267  Uiso   1.00
C13    C     0.44450   0.70240   0.90140   0.01267  Uiso   1.00
C14    C     0.80920   0.91380   0.68370   0.01267  Uiso   1.00
C15    C     0.64890   0.14020   0.64110   0.01267  Uiso   1.00
C16    C     0.37900   0.98920   0.31580   0.01267  Uiso   1.00
C17    C     0.37230   0.66620   0.01410   0.01267  Uiso   1.00
C18    C     0.55550   0.29760   0.09860   0.01267  Uiso   1.00
C19    C     0.55480   0.40730   0.78850   0.01267  Uiso   1.00
C20    C     0.52110   0.64030   0.08830   0.01267  Uiso   1.00
C21    C     0.13370   0.82780   0.40160   0.01267  Uiso   1.00
C22    C     0.86630   0.17220   0.59840   0.01267  Uiso   1.00
C23    C     0.33200   0.28890   0.13480   0.01267  Uiso   1.00
C24    C     0.89680   0.31230   0.54390   0.01267  Uiso   1.00
C25    C     0.66800   0.71110   0.86520   0.01267  Uiso   1.00
C26    C     0.35110   0.85980   0.35890   0.01267  Uiso   1.00
C27    C     0.47890   0.35970   0.91170   0.01267  Uiso   1.00
C28    C     0.74410   0.65030   0.05080   0.01267  Uiso   1.00
S1     S     0.23315   0.25076   0.27657   0.01267  Uiso   1.00
S2     S     0.76685   0.74924   0.72343   0.01267  Uiso   1.00
O1     O     0.24110   0.57790   0.24210   0.01267  Uiso   1.00
O2     O     0.27220   0.60990   0.49330   0.01267  Uiso   1.00
O3     O     0.98660   0.67100   0.70780   0.01267  Uiso   1.00
O4     O     0.59290   0.56920   0.27400   0.01267  Uiso   1.00
O5     O     0.75890   0.42210   0.75790   0.01267  Uiso   1.00
O6     O     0.72780   0.39010   0.50670   0.01267  Uiso   1.00
O7     O     0.01340   0.32900   0.29220   0.01267  Uiso   1.00
O8     O     0.58570   0.74270   0.66720   0.01267  Uiso   1.00
O9     O     0.90890   0.65930   0.46390   0.01267  Uiso   1.00
O10    O     0.40710   0.43080   0.72600   0.01267  Uiso   1.00
O11    O     0.09110   0.34070   0.53610   0.01267  Uiso   1.00
O12    O     0.41430   0.25730   0.33280   0.01267  Uiso   1.00
