data_HOHMIB_clean
_audit_creation_date              2014-07-02
_audit_creation_method            'Materials Studio'
_symmetry_space_group_name_H-M    'P1'
_symmetry_Int_Tables_number       1
_symmetry_cell_setting            triclinic
loop_
_symmetry_equiv_pos_as_xyz
  x,y,z
_cell_length_a                    19.4226
_cell_length_b                    19.4226
_cell_length_c                    28.9481
_cell_angle_alpha                 70.3987
_cell_angle_beta                  70.3987
_cell_angle_gamma                 89.9999
loop_
_atom_site_label
_atom_site_type_symbol
_atom_site_fract_x
_atom_site_fract_y
_atom_site_fract_z
_atom_site_U_iso_or_equiv
_atom_site_adp_type
_atom_site_occupancy
Zn1    Zn    0.45438   0.12718   0.74564   0.01267  Uiso   1.00
Zn2    Zn    0.79998   0.12718   0.74564   0.01267  Uiso   1.00
Zn3    Zn    0.87718   0.04998   0.24564   0.01267  Uiso   1.00
Zn4    Zn    0.87718   0.70438   0.24564   0.01267  Uiso   1.00
Zn5    Zn    0.95002   0.12282   0.75436   0.01267  Uiso   1.00
Zn6    Zn    0.29562   0.12282   0.75436   0.01267  Uiso   1.00
Zn7    Zn    0.87282   0.20002   0.25436   0.01267  Uiso   1.00
Zn8    Zn    0.87282   0.54562   0.25436   0.01267  Uiso   1.00
H1     H     0.61120   0.12630   0.66660   0.01267  Uiso   1.00
H2     H     0.57030   0.23460   0.74820   0.01267  Uiso   1.00
H3     H     0.54240   0.17220   0.80400   0.01267  Uiso   1.00
H4     H     0.42480   0.21160   0.87260   0.01267  Uiso   1.00
H5     H     0.39600   0.25930   0.93880   0.01267  Uiso   1.00
H6     H     0.18990   0.23720   0.95500   0.01267  Uiso   1.00
H7     H     0.21370   0.20020   0.88640   0.01267  Uiso   1.00
H8     H     0.72220   0.20710   0.66660   0.01267  Uiso   1.00
H9     H     0.68150   0.01720   0.74820   0.01267  Uiso   1.00
H10    H     0.65360   0.02380   0.80400   0.01267  Uiso   1.00
H11    H     0.70260   0.91580   0.87260   0.01267  Uiso   1.00
H12    H     0.66520   0.80190   0.93880   0.01267  Uiso   1.00
H13    H     0.85510   0.80780   0.95500   0.01267  Uiso   1.00
H14    H     0.89990   0.91340   0.88640   0.01267  Uiso   1.00
H15    H     0.87630   0.97220   0.16660   0.01267  Uiso   1.00
H16    H     0.98460   0.93150   0.24820   0.01267  Uiso   1.00
H17    H     0.92220   0.90360   0.30400   0.01267  Uiso   1.00
H18    H     0.96160   0.95260   0.37260   0.01267  Uiso   1.00
H19    H     0.00930   0.91520   0.43880   0.01267  Uiso   1.00
H20    H     0.98720   0.10510   0.45500   0.01267  Uiso   1.00
H21    H     0.95020   0.14990   0.38640   0.01267  Uiso   1.00
H22    H     0.95710   0.86120   0.16660   0.01267  Uiso   1.00
H23    H     0.76720   0.82030   0.24820   0.01267  Uiso   1.00
H24    H     0.77380   0.79240   0.30400   0.01267  Uiso   1.00
H25    H     0.66580   0.67480   0.37260   0.01267  Uiso   1.00
H26    H     0.55190   0.64600   0.43880   0.01267  Uiso   1.00
H27    H     0.55780   0.43990   0.45500   0.01267  Uiso   1.00
H28    H     0.66340   0.46370   0.38640   0.01267  Uiso   1.00
H29    H     0.02780   0.12370   0.83340   0.01267  Uiso   1.00
H30    H     0.06850   0.01540   0.75180   0.01267  Uiso   1.00
H31    H     0.09640   0.07780   0.69600   0.01267  Uiso   1.00
H32    H     0.04740   0.03840   0.62740   0.01267  Uiso   1.00
H33    H     0.08480   0.99070   0.56120   0.01267  Uiso   1.00
H34    H     0.89490   0.01280   0.54500   0.01267  Uiso   1.00
H35    H     0.85010   0.04980   0.61360   0.01267  Uiso   1.00
H36    H     0.13880   0.04290   0.83340   0.01267  Uiso   1.00
H37    H     0.17970   0.23280   0.75180   0.01267  Uiso   1.00
H38    H     0.20760   0.22620   0.69600   0.01267  Uiso   1.00
H39    H     0.32520   0.33420   0.62740   0.01267  Uiso   1.00
H40    H     0.35400   0.44810   0.56120   0.01267  Uiso   1.00
H41    H     0.56010   0.44220   0.54500   0.01267  Uiso   1.00
H42    H     0.53630   0.33660   0.61360   0.01267  Uiso   1.00
H43    H     0.79290   0.27780   0.33340   0.01267  Uiso   1.00
H44    H     0.98280   0.31850   0.25180   0.01267  Uiso   1.00
H45    H     0.97620   0.34640   0.19600   0.01267  Uiso   1.00
H46    H     0.08420   0.29740   0.12740   0.01267  Uiso   1.00
H47    H     0.19810   0.33480   0.06120   0.01267  Uiso   1.00
H48    H     0.19220   0.14490   0.04500   0.01267  Uiso   1.00
H49    H     0.08660   0.10010   0.11360   0.01267  Uiso   1.00
H50    H     0.87370   0.38880   0.33340   0.01267  Uiso   1.00
H51    H     0.76540   0.42970   0.25180   0.01267  Uiso   1.00
H52    H     0.82780   0.45760   0.19600   0.01267  Uiso   1.00
H53    H     0.78840   0.57520   0.12740   0.01267  Uiso   1.00
H54    H     0.74070   0.60400   0.06120   0.01267  Uiso   1.00
H55    H     0.76280   0.81010   0.04500   0.01267  Uiso   1.00
H56    H     0.79980   0.78630   0.11360   0.01267  Uiso   1.00
H57    H     0.13880   0.12370   0.83340   0.01267  Uiso   1.00
H58    H     0.17970   0.01540   0.75180   0.01267  Uiso   1.00
H59    H     0.20760   0.07780   0.69600   0.01267  Uiso   1.00
H60    H     0.32520   0.03840   0.62740   0.01267  Uiso   1.00
H61    H     0.35400   0.99070   0.56120   0.01267  Uiso   1.00
H62    H     0.56010   0.01280   0.54500   0.01267  Uiso   1.00
H63    H     0.53630   0.04980   0.61360   0.01267  Uiso   1.00
H64    H     0.02780   0.04290   0.83340   0.01267  Uiso   1.00
H65    H     0.06850   0.23280   0.75180   0.01267  Uiso   1.00
H66    H     0.09640   0.22620   0.69600   0.01267  Uiso   1.00
H67    H     0.04740   0.33420   0.62740   0.01267  Uiso   1.00
H68    H     0.08480   0.44810   0.56120   0.01267  Uiso   1.00
H69    H     0.89490   0.44220   0.54500   0.01267  Uiso   1.00
H70    H     0.85010   0.33660   0.61360   0.01267  Uiso   1.00
H71    H     0.87370   0.27780   0.33340   0.01267  Uiso   1.00
H72    H     0.76540   0.31850   0.25180   0.01267  Uiso   1.00
H73    H     0.82780   0.34640   0.19600   0.01267  Uiso   1.00
H74    H     0.78840   0.29740   0.12740   0.01267  Uiso   1.00
H75    H     0.74070   0.33480   0.06120   0.01267  Uiso   1.00
H76    H     0.76280   0.14490   0.04500   0.01267  Uiso   1.00
H77    H     0.79980   0.10010   0.11360   0.01267  Uiso   1.00
H78    H     0.79290   0.38880   0.33340   0.01267  Uiso   1.00
H79    H     0.98280   0.42970   0.25180   0.01267  Uiso   1.00
H80    H     0.97620   0.45760   0.19600   0.01267  Uiso   1.00
H81    H     0.08420   0.57520   0.12740   0.01267  Uiso   1.00
H82    H     0.19810   0.60400   0.06120   0.01267  Uiso   1.00
H83    H     0.19220   0.81010   0.04500   0.01267  Uiso   1.00
H84    H     0.08660   0.78630   0.11360   0.01267  Uiso   1.00
H85    H     0.72220   0.12630   0.66660   0.01267  Uiso   1.00
H86    H     0.68150   0.23460   0.74820   0.01267  Uiso   1.00
H87    H     0.65360   0.17220   0.80400   0.01267  Uiso   1.00
H88    H     0.70260   0.21160   0.87260   0.01267  Uiso   1.00
H89    H     0.66520   0.25930   0.93880   0.01267  Uiso   1.00
H90    H     0.85510   0.23720   0.95500   0.01267  Uiso   1.00
H91    H     0.89990   0.20020   0.88640   0.01267  Uiso   1.00
H92    H     0.61120   0.20710   0.66660   0.01267  Uiso   1.00
H93    H     0.57030   0.01720   0.74820   0.01267  Uiso   1.00
H94    H     0.54240   0.02380   0.80400   0.01267  Uiso   1.00
H95    H     0.42480   0.91580   0.87260   0.01267  Uiso   1.00
H96    H     0.39600   0.80190   0.93880   0.01267  Uiso   1.00
H97    H     0.18990   0.80780   0.95500   0.01267  Uiso   1.00
H98    H     0.21370   0.91340   0.88640   0.01267  Uiso   1.00
H99    H     0.95710   0.97220   0.16660   0.01267  Uiso   1.00
H100   H     0.76720   0.93150   0.24820   0.01267  Uiso   1.00
H101   H     0.77380   0.90360   0.30400   0.01267  Uiso   1.00
H102   H     0.66580   0.95260   0.37260   0.01267  Uiso   1.00
H103   H     0.55190   0.91520   0.43880   0.01267  Uiso   1.00
H104   H     0.55780   0.10510   0.45500   0.01267  Uiso   1.00
H105   H     0.66340   0.14990   0.38640   0.01267  Uiso   1.00
H106   H     0.87630   0.86120   0.16660   0.01267  Uiso   1.00
H107   H     0.98460   0.82030   0.24820   0.01267  Uiso   1.00
H108   H     0.92220   0.79240   0.30400   0.01267  Uiso   1.00
H109   H     0.96160   0.67480   0.37260   0.01267  Uiso   1.00
H110   H     0.00930   0.64600   0.43880   0.01267  Uiso   1.00
H111   H     0.98720   0.43990   0.45500   0.01267  Uiso   1.00
H112   H     0.95020   0.46370   0.38640   0.01267  Uiso   1.00
C1     C     0.57700   0.18560   0.76820   0.01267  Uiso   1.00
C2     C     0.34081   0.17741   0.82298   0.01267  Uiso   1.00
C3     C     0.32355   0.20525   0.86850   0.01267  Uiso   1.00
C4     C     0.37648   0.21928   0.88784   0.01267  Uiso   1.00
C5     C     0.35886   0.24446   0.92928   0.01267  Uiso   1.00
C6     C     0.28963   0.24753   0.95514   0.01267  Uiso   1.00
C7     C     0.23850   0.23250   0.93740   0.01267  Uiso   1.00
C8     C     0.25208   0.21108   0.89624   0.01267  Uiso   1.00
C9     C     0.65480   0.04620   0.76820   0.01267  Uiso   1.00
C10    C     0.83621   0.99961   0.82298   0.01267  Uiso   1.00
C11    C     0.80795   0.92625   0.86850   0.01267  Uiso   1.00
C12    C     0.73568   0.89288   0.88784   0.01267  Uiso   1.00
C13    C     0.71186   0.82626   0.92928   0.01267  Uiso   1.00
C14    C     0.75523   0.79733   0.95514   0.01267  Uiso   1.00
C15    C     0.82410   0.83010   0.93740   0.01267  Uiso   1.00
C16    C     0.85168   0.89268   0.89624   0.01267  Uiso   1.00
C17    C     0.93560   0.90480   0.26820   0.01267  Uiso   1.00
C18    C     0.92741   0.08621   0.32298   0.01267  Uiso   1.00
C19    C     0.95525   0.05795   0.36850   0.01267  Uiso   1.00
C20    C     0.96928   0.98568   0.38784   0.01267  Uiso   1.00
C21    C     0.99446   0.96186   0.42928   0.01267  Uiso   1.00
C22    C     0.99753   0.00523   0.45514   0.01267  Uiso   1.00
C23    C     0.98250   0.07410   0.43740   0.01267  Uiso   1.00
C24    C     0.96108   0.10168   0.39624   0.01267  Uiso   1.00
C25    C     0.79620   0.82700   0.26820   0.01267  Uiso   1.00
C26    C     0.74961   0.59081   0.32298   0.01267  Uiso   1.00
C27    C     0.67625   0.57355   0.36850   0.01267  Uiso   1.00
C28    C     0.64288   0.62648   0.38784   0.01267  Uiso   1.00
C29    C     0.57626   0.60886   0.42928   0.01267  Uiso   1.00
C30    C     0.54733   0.53963   0.45514   0.01267  Uiso   1.00
C31    C     0.58010   0.48850   0.43740   0.01267  Uiso   1.00
C32    C     0.64268   0.50208   0.39624   0.01267  Uiso   1.00
C33    C     0.09520   0.06440   0.73180   0.01267  Uiso   1.00
C34    C     0.91379   0.07259   0.67702   0.01267  Uiso   1.00
C35    C     0.94205   0.04475   0.63150   0.01267  Uiso   1.00
C36    C     0.01432   0.03072   0.61216   0.01267  Uiso   1.00
C37    C     0.03814   0.00554   0.57072   0.01267  Uiso   1.00
C38    C     0.99477   0.00247   0.54486   0.01267  Uiso   1.00
C39    C     0.92590   0.01750   0.56260   0.01267  Uiso   1.00
C40    C     0.89832   0.03892   0.60376   0.01267  Uiso   1.00
C41    C     0.17300   0.20380   0.73180   0.01267  Uiso   1.00
C42    C     0.40919   0.25039   0.67702   0.01267  Uiso   1.00
C43    C     0.42645   0.32375   0.63150   0.01267  Uiso   1.00
C44    C     0.37352   0.35712   0.61216   0.01267  Uiso   1.00
C45    C     0.39114   0.42374   0.57072   0.01267  Uiso   1.00
C46    C     0.46037   0.45267   0.54486   0.01267  Uiso   1.00
C47    C     0.51150   0.41990   0.56260   0.01267  Uiso   1.00
C48    C     0.49792   0.35732   0.60376   0.01267  Uiso   1.00
C49    C     0.95380   0.34520   0.23180   0.01267  Uiso   1.00
C50    C     0.00039   0.16379   0.17702   0.01267  Uiso   1.00
C51    C     0.07375   0.19205   0.13150   0.01267  Uiso   1.00
C52    C     0.10712   0.26432   0.11216   0.01267  Uiso   1.00
C53    C     0.17374   0.28814   0.07072   0.01267  Uiso   1.00
C54    C     0.20267   0.24477   0.04486   0.01267  Uiso   1.00
C55    C     0.16990   0.17590   0.06260   0.01267  Uiso   1.00
C56    C     0.10732   0.14832   0.10376   0.01267  Uiso   1.00
C57    C     0.81440   0.42300   0.23180   0.01267  Uiso   1.00
C58    C     0.82259   0.65919   0.17702   0.01267  Uiso   1.00
C59    C     0.79475   0.67645   0.13150   0.01267  Uiso   1.00
C60    C     0.78072   0.62352   0.11216   0.01267  Uiso   1.00
C61    C     0.75554   0.64114   0.07072   0.01267  Uiso   1.00
C62    C     0.75247   0.71037   0.04486   0.01267  Uiso   1.00
C63    C     0.76750   0.76150   0.06260   0.01267  Uiso   1.00
C64    C     0.78892   0.74792   0.10376   0.01267  Uiso   1.00
C65    C     0.17300   0.06440   0.73180   0.01267  Uiso   1.00
C66    C     0.40919   0.07259   0.67702   0.01267  Uiso   1.00
C67    C     0.42645   0.04475   0.63150   0.01267  Uiso   1.00
C68    C     0.37352   0.03072   0.61216   0.01267  Uiso   1.00
C69    C     0.39114   0.00554   0.57072   0.01267  Uiso   1.00
C70    C     0.46037   0.00247   0.54486   0.01267  Uiso   1.00
C71    C     0.51150   0.01750   0.56260   0.01267  Uiso   1.00
C72    C     0.49792   0.03892   0.60376   0.01267  Uiso   1.00
C73    C     0.09520   0.20380   0.73180   0.01267  Uiso   1.00
C74    C     0.91379   0.25039   0.67702   0.01267  Uiso   1.00
C75    C     0.94205   0.32375   0.63150   0.01267  Uiso   1.00
C76    C     0.01432   0.35712   0.61216   0.01267  Uiso   1.00
C77    C     0.03814   0.42374   0.57072   0.01267  Uiso   1.00
C78    C     0.99477   0.45267   0.54486   0.01267  Uiso   1.00
C79    C     0.92590   0.41990   0.56260   0.01267  Uiso   1.00
C80    C     0.89832   0.35732   0.60376   0.01267  Uiso   1.00
C81    C     0.81440   0.34520   0.23180   0.01267  Uiso   1.00
C82    C     0.82259   0.16379   0.17702   0.01267  Uiso   1.00
C83    C     0.79475   0.19205   0.13150   0.01267  Uiso   1.00
C84    C     0.78072   0.26432   0.11216   0.01267  Uiso   1.00
C85    C     0.75554   0.28814   0.07072   0.01267  Uiso   1.00
C86    C     0.75247   0.24477   0.04486   0.01267  Uiso   1.00
C87    C     0.76750   0.17590   0.06260   0.01267  Uiso   1.00
C88    C     0.78892   0.14832   0.10376   0.01267  Uiso   1.00
C89    C     0.95380   0.42300   0.23180   0.01267  Uiso   1.00
C90    C     0.00039   0.65919   0.17702   0.01267  Uiso   1.00
C91    C     0.07375   0.67645   0.13150   0.01267  Uiso   1.00
C92    C     0.10712   0.62352   0.11216   0.01267  Uiso   1.00
C93    C     0.17374   0.64114   0.07072   0.01267  Uiso   1.00
C94    C     0.20267   0.71037   0.04486   0.01267  Uiso   1.00
C95    C     0.16990   0.76150   0.06260   0.01267  Uiso   1.00
C96    C     0.10732   0.74792   0.10376   0.01267  Uiso   1.00
C97    C     0.65480   0.18560   0.76820   0.01267  Uiso   1.00
C98    C     0.83621   0.17741   0.82298   0.01267  Uiso   1.00
C99    C     0.80795   0.20525   0.86850   0.01267  Uiso   1.00
C100   C     0.73568   0.21928   0.88784   0.01267  Uiso   1.00
C101   C     0.71186   0.24446   0.92928   0.01267  Uiso   1.00
C102   C     0.75523   0.24753   0.95514   0.01267  Uiso   1.00
C103   C     0.82410   0.23250   0.93740   0.01267  Uiso   1.00
C104   C     0.85168   0.21108   0.89624   0.01267  Uiso   1.00
C105   C     0.57700   0.04620   0.76820   0.01267  Uiso   1.00
C106   C     0.34081   0.99961   0.82298   0.01267  Uiso   1.00
C107   C     0.32355   0.92625   0.86850   0.01267  Uiso   1.00
C108   C     0.37648   0.89288   0.88784   0.01267  Uiso   1.00
C109   C     0.35886   0.82626   0.92928   0.01267  Uiso   1.00
C110   C     0.28963   0.79733   0.95514   0.01267  Uiso   1.00
C111   C     0.23850   0.83010   0.93740   0.01267  Uiso   1.00
C112   C     0.25208   0.89268   0.89624   0.01267  Uiso   1.00
C113   C     0.79620   0.90480   0.26820   0.01267  Uiso   1.00
C114   C     0.74961   0.08621   0.32298   0.01267  Uiso   1.00
C115   C     0.67625   0.05795   0.36850   0.01267  Uiso   1.00
C116   C     0.64288   0.98568   0.38784   0.01267  Uiso   1.00
C117   C     0.57626   0.96186   0.42928   0.01267  Uiso   1.00
C118   C     0.54733   0.00523   0.45514   0.01267  Uiso   1.00
C119   C     0.58010   0.07410   0.43740   0.01267  Uiso   1.00
C120   C     0.64268   0.10168   0.39624   0.01267  Uiso   1.00
C121   C     0.93560   0.82700   0.26820   0.01267  Uiso   1.00
C122   C     0.92741   0.59081   0.32298   0.01267  Uiso   1.00
C123   C     0.95525   0.57355   0.36850   0.01267  Uiso   1.00
C124   C     0.96928   0.62648   0.38784   0.01267  Uiso   1.00
C125   C     0.99446   0.60886   0.42928   0.01267  Uiso   1.00
C126   C     0.99753   0.53963   0.45514   0.01267  Uiso   1.00
C127   C     0.98250   0.48850   0.43740   0.01267  Uiso   1.00
C128   C     0.96108   0.50208   0.39624   0.01267  Uiso   1.00
C129   C     0.61860   0.15750   0.68500   0.01267  Uiso   1.00
C130   C     0.69640   0.15750   0.68500   0.01267  Uiso   1.00
C131   C     0.90750   0.94640   0.18500   0.01267  Uiso   1.00
C132   C     0.90750   0.86860   0.18500   0.01267  Uiso   1.00
C133   C     0.05360   0.09250   0.81500   0.01267  Uiso   1.00
C134   C     0.13140   0.09250   0.81500   0.01267  Uiso   1.00
C135   C     0.84250   0.30360   0.31500   0.01267  Uiso   1.00
C136   C     0.84250   0.38140   0.31500   0.01267  Uiso   1.00
C137   C     0.27240   0.27240   0.00000   0.01267  Uiso   1.00
C138   C     0.72760   0.72760   0.00000   0.01267  Uiso   1.00
C139   C     0.02240   0.97760   0.50000   0.01267  Uiso   1.00
C140   C     0.47760   0.52240   0.50000   0.01267  Uiso   1.00
C141   C     0.47760   0.97760   0.50000   0.01267  Uiso   1.00
C142   C     0.02240   0.52240   0.50000   0.01267  Uiso   1.00
C143   C     0.72760   0.27240   0.00000   0.01267  Uiso   1.00
C144   C     0.27240   0.72760   0.00000   0.01267  Uiso   1.00
N1     N     0.56051   0.12841   0.74318   0.01267  Uiso   1.00
N2     N     0.69631   0.12841   0.74318   0.01267  Uiso   1.00
N3     N     0.87841   0.94631   0.24318   0.01267  Uiso   1.00
N4     N     0.87841   0.81051   0.24318   0.01267  Uiso   1.00
N5     N     0.05369   0.12159   0.75682   0.01267  Uiso   1.00
N6     N     0.18949   0.12159   0.75682   0.01267  Uiso   1.00
N7     N     0.87159   0.30369   0.25682   0.01267  Uiso   1.00
N8     N     0.87159   0.43949   0.25682   0.01267  Uiso   1.00
O1     O     0.40869   0.17109   0.80262   0.01267  Uiso   1.00
O2     O     0.29051   0.16691   0.80958   0.01267  Uiso   1.00
O3     O     0.78869   0.02629   0.80262   0.01267  Uiso   1.00
O4     O     0.89991   0.02351   0.80958   0.01267  Uiso   1.00
O5     O     0.92109   0.03869   0.30262   0.01267  Uiso   1.00
O6     O     0.91691   0.14991   0.30958   0.01267  Uiso   1.00
O7     O     0.77629   0.65869   0.30262   0.01267  Uiso   1.00
O8     O     0.77351   0.54051   0.30958   0.01267  Uiso   1.00
O9     O     0.96131   0.07891   0.69738   0.01267  Uiso   1.00
O10    O     0.85009   0.08309   0.69042   0.01267  Uiso   1.00
O11    O     0.34131   0.22371   0.69738   0.01267  Uiso   1.00
O12    O     0.45949   0.22649   0.69042   0.01267  Uiso   1.00
O13    O     0.97371   0.21131   0.19738   0.01267  Uiso   1.00
O14    O     0.97649   0.10009   0.19042   0.01267  Uiso   1.00
O15    O     0.82891   0.59131   0.19738   0.01267  Uiso   1.00
O16    O     0.83309   0.70949   0.19042   0.01267  Uiso   1.00
O17    O     0.34131   0.07891   0.69738   0.01267  Uiso   1.00
O18    O     0.45949   0.08309   0.69042   0.01267  Uiso   1.00
O19    O     0.96131   0.22371   0.69738   0.01267  Uiso   1.00
O20    O     0.85009   0.22649   0.69042   0.01267  Uiso   1.00
O21    O     0.82891   0.21131   0.19738   0.01267  Uiso   1.00
O22    O     0.83309   0.10009   0.19042   0.01267  Uiso   1.00
O23    O     0.97371   0.59131   0.19738   0.01267  Uiso   1.00
O24    O     0.97649   0.70949   0.19042   0.01267  Uiso   1.00
O25    O     0.78869   0.17109   0.80262   0.01267  Uiso   1.00
O26    O     0.89991   0.16691   0.80958   0.01267  Uiso   1.00
O27    O     0.40869   0.02629   0.80262   0.01267  Uiso   1.00
O28    O     0.29051   0.02351   0.80958   0.01267  Uiso   1.00
O29    O     0.77629   0.03869   0.30262   0.01267  Uiso   1.00
O30    O     0.77351   0.14991   0.30958   0.01267  Uiso   1.00
O31    O     0.92109   0.65869   0.30262   0.01267  Uiso   1.00
O32    O     0.91691   0.54051   0.30958   0.01267  Uiso   1.00
O33    O     0.31870   0.31870   0.00000   0.01267  Uiso   1.00
O34    O     0.68130   0.68130   0.00000   0.01267  Uiso   1.00
O35    O     0.06870   0.93130   0.50000   0.01267  Uiso   1.00
O36    O     0.43130   0.56870   0.50000   0.01267  Uiso   1.00
O37    O     0.43130   0.93130   0.50000   0.01267  Uiso   1.00
O38    O     0.06870   0.56870   0.50000   0.01267  Uiso   1.00
O39    O     0.68130   0.31870   0.00000   0.01267  Uiso   1.00
O40    O     0.31870   0.68130   0.00000   0.01267  Uiso   1.00
