data_image0
_cell_length_a       15.7264
_cell_length_b       20.8072
_cell_length_c       13.9774
_cell_angle_alpha    90
_cell_angle_beta     90
_cell_angle_gamma    90

_symmetry_space_group_name_H-M    "P 1"
_symmetry_int_tables_number       1

loop_
  _symmetry_equiv_pos_as_xyz
  'x, y, z'

loop_
  _atom_site_label
  _atom_site_occupancy
  _atom_site_fract_x
  _atom_site_fract_y
  _atom_site_fract_z
  _atom_site_thermal_displace_type
  _atom_site_B_iso_or_equiv
  _atom_site_type_symbol
  Cd1      1.0000 0.74934  0.09010  0.38759  Biso   1.000  Cd
  N1       1.0000 0.75950  0.08470  0.55270  Biso   1.000  N
  N2       1.0000 0.74110  0.10040  0.21900  Biso   1.000  N
  O1       1.0000 0.78270  0.48040  0.63260  Biso   1.000  O
  C1       1.0000 0.70820  0.46000  0.62300  Biso   1.000  C
  O2       1.0000 0.87450  0.14140  0.36310  Biso   1.000  O
  N3       1.0000 0.76520  0.34980  0.61700  Biso   1.000  N
  O3       1.0000 0.64750  0.49790  0.60850  Biso   1.000  O
  O4       1.0000 0.17780  0.29560  0.57670  Biso   1.000  O
  O5       1.0000 0.10890  0.38820  0.59240  Biso   1.000  O
  C2       1.0000 0.93920  0.15000  0.40980  Biso   1.000  C
  C3       1.0000 0.96180  0.04640  0.19030  Biso   1.000  C
  H1       1.0000 0.93450  0.07890  0.22420  Biso   1.000  H
  C4       1.0000 0.69130  0.38970  0.63500  Biso   1.000  C
  H2       1.0000 0.64410  0.37640  0.59370  Biso   1.000  H
  O6       1.0000 0.99900  0.11080  0.42240  Biso   1.000  O
  C5       1.0000 0.03180  0.30010  0.53550  Biso   1.000  C
  C6       1.0000 0.94840  0.21620  0.45860  Biso   1.000  C
  C7       1.0000 0.02440  0.23830  0.49420  Biso   1.000  C
  H3       1.0000 0.07220  0.21190  0.49120  Biso   1.000  H
  O7       1.0000 0.76550  0.37710  0.46100  Biso   1.000  O
  C8       1.0000 0.87530  0.25290  0.46800  Biso   1.000  C
  H4       1.0000 0.82420  0.23830  0.44230  Biso   1.000  H
  C9       1.0000 0.75630  0.07220  0.75550  Biso   1.000  C
  C10      1.0000 0.74250  0.10830  0.02400  Biso   1.000  C
  C11      1.0000 0.75850  0.15310  0.18020  Biso   1.000  C
  H5       1.0000 0.76670  0.18900  0.21860  Biso   1.000  H
  C12      1.0000 0.74400  0.11560  0.91540  Biso   1.000  C
  H6       1.0000 0.74190  0.15750  0.89220  Biso   1.000  H
  C13      1.0000 0.71620  0.05220  0.06900  Biso   1.000  C
  H7       1.0000 0.69420  0.01800  0.03420  Biso   1.000  H
  C14      1.0000 0.76620  0.15960  0.07970  Biso   1.000  C
  H8       1.0000 0.78650  0.19740  0.05240  Biso   1.000  H
  C15      1.0000 0.87820  0.31130  0.51570  Biso   1.000  C
  C16      1.0000 0.72400  0.04910  0.16680  Biso   1.000  C
  H9       1.0000 0.71700  0.00970  0.19720  Biso   1.000  H
  C17      1.0000 0.75500  0.02550  0.69600  Biso   1.000  C
  H10      1.0000 0.75740  0.98420  0.72120  Biso   1.000  H
  C18      1.0000 0.77570  0.13350  0.60680  Biso   1.000  C
  H11      1.0000 0.79110  0.17240  0.57910  Biso   1.000  H
  C19      1.0000 0.74770  0.07140  0.85290  Biso   1.000  C
  H12      1.0000 0.74380  0.03030  0.87850  Biso   1.000  H
  C20      1.0000 0.96110  0.04850  0.09110  Biso   1.000  C
  H13      1.0000 0.93450  0.08230  0.05940  Biso   1.000  H
  C21      1.0000 0.79700  0.34820  0.52620  Biso   1.000  C
  C22      1.0000 0.77040  0.12870  0.70710  Biso   1.000  C
  H14      1.0000 0.77690  0.16610  0.74280  Biso   1.000  H
  C23      1.0000 0.99400  0.02380  0.88260  Biso   1.000  C
  C24      1.0000 0.75050  0.03090  0.59980  Biso   1.000  C
  H15      1.0000 0.74030  0.99370  0.56470  Biso   1.000  H
  C25      1.0000 0.95230  0.33510  0.54600  Biso   1.000  C
  H16      1.0000 0.95320  0.37540  0.57480  Biso   1.000  H
  C26      1.0000 0.10960  0.32870  0.57110  Biso   1.000  C
  C27      1.0000 0.03370  0.05040  0.62200  Biso   1.000  C
  H17      1.0000 0.06230  0.08410  0.59240  Biso   1.000  H
  C28      1.0000 0.79790  0.31600  0.70210  Biso   1.000  C
  H18      1.0000 0.84260  0.34040  0.73320  Biso   1.000  H
  H19      1.0000 0.81930  0.27360  0.68590  Biso   1.000  H
  C29      1.0000 0.67190  0.37230  0.73980  Biso   1.000  C
  H20      1.0000 0.69030  0.40690  0.78150  Biso   1.000  H
  H21      1.0000 0.61120  0.36650  0.74820  Biso   1.000  H
  C30      1.0000 0.02220  0.04870  0.73000  Biso   1.000  C
  H22      1.0000 0.03240  0.08600  0.76500  Biso   1.000  H
  C31      1.0000 0.71750  0.31180  0.76520  Biso   1.000  C
  H23      1.0000 0.68380  0.27420  0.74950  Biso   1.000  H
  H24      1.0000 0.73200  0.31070  0.83260  Biso   1.000  H
  Cd2      1.0000 0.25066  0.90990  0.38759  Biso   1.000  Cd
  N4       1.0000 0.24050  0.91530  0.55270  Biso   1.000  N
  N5       1.0000 0.25890  0.89960  0.21900  Biso   1.000  N
  O8       1.0000 0.21730  0.51960  0.63260  Biso   1.000  O
  C32      1.0000 0.29180  0.54000  0.62300  Biso   1.000  C
  O9       1.0000 0.12550  0.85860  0.36310  Biso   1.000  O
  N6       1.0000 0.23480  0.65020  0.61700  Biso   1.000  N
  O10      1.0000 0.35250  0.50210  0.60850  Biso   1.000  O
  O11      1.0000 0.82220  0.70440  0.57670  Biso   1.000  O
  O12      1.0000 0.89110  0.61180  0.59240  Biso   1.000  O
  C33      1.0000 0.06080  0.85000  0.40980  Biso   1.000  C
  C34      1.0000 0.03820  0.95360  0.19030  Biso   1.000  C
  H25      1.0000 0.06550  0.92110  0.22420  Biso   1.000  H
  C35      1.0000 0.30870  0.61030  0.63500  Biso   1.000  C
  H26      1.0000 0.35590  0.62360  0.59370  Biso   1.000  H
  O13      1.0000 0.00100  0.88920  0.42240  Biso   1.000  O
  C36      1.0000 0.96820  0.69990  0.53550  Biso   1.000  C
  C37      1.0000 0.05160  0.78380  0.45860  Biso   1.000  C
  C38      1.0000 0.97560  0.76170  0.49420  Biso   1.000  C
  H27      1.0000 0.92780  0.78810  0.49120  Biso   1.000  H
  O14      1.0000 0.23450  0.62290  0.46100  Biso   1.000  O
  C39      1.0000 0.12470  0.74710  0.46800  Biso   1.000  C
  H28      1.0000 0.17580  0.76170  0.44230  Biso   1.000  H
  C40      1.0000 0.24370  0.92780  0.75550  Biso   1.000  C
  C41      1.0000 0.25750  0.89170  0.02400  Biso   1.000  C
  C42      1.0000 0.24150  0.84690  0.18020  Biso   1.000  C
  H29      1.0000 0.23330  0.81100  0.21860  Biso   1.000  H
  C43      1.0000 0.25600  0.88440  0.91540  Biso   1.000  C
  H30      1.0000 0.25810  0.84250  0.89220  Biso   1.000  H
  C44      1.0000 0.28380  0.94780  0.06900  Biso   1.000  C
  H31      1.0000 0.30580  0.98200  0.03420  Biso   1.000  H
  C45      1.0000 0.23380  0.84040  0.07970  Biso   1.000  C
  H32      1.0000 0.21350  0.80260  0.05240  Biso   1.000  H
  C46      1.0000 0.12180  0.68870  0.51570  Biso   1.000  C
  C47      1.0000 0.27600  0.95090  0.16680  Biso   1.000  C
  H33      1.0000 0.28300  0.99030  0.19720  Biso   1.000  H
  C48      1.0000 0.24500  0.97450  0.69600  Biso   1.000  C
  H34      1.0000 0.24260  0.01580  0.72120  Biso   1.000  H
  C49      1.0000 0.22430  0.86650  0.60680  Biso   1.000  C
  H35      1.0000 0.20890  0.82760  0.57910  Biso   1.000  H
  C50      1.0000 0.25230  0.92860  0.85290  Biso   1.000  C
  H36      1.0000 0.25620  0.96970  0.87850  Biso   1.000  H
  C51      1.0000 0.03890  0.95150  0.09110  Biso   1.000  C
  H37      1.0000 0.06550  0.91770  0.05940  Biso   1.000  H
  C52      1.0000 0.20300  0.65180  0.52620  Biso   1.000  C
  C53      1.0000 0.22960  0.87130  0.70710  Biso   1.000  C
  H38      1.0000 0.22310  0.83390  0.74280  Biso   1.000  H
  C54      1.0000 0.00600  0.97620  0.88260  Biso   1.000  C
  C55      1.0000 0.24950  0.96910  0.59980  Biso   1.000  C
  H39      1.0000 0.25970  0.00630  0.56470  Biso   1.000  H
  C56      1.0000 0.04770  0.66490  0.54600  Biso   1.000  C
  H40      1.0000 0.04680  0.62460  0.57480  Biso   1.000  H
  C57      1.0000 0.89040  0.67130  0.57110  Biso   1.000  C
  C58      1.0000 0.96630  0.94960  0.62200  Biso   1.000  C
  H41      1.0000 0.93770  0.91590  0.59240  Biso   1.000  H
  C59      1.0000 0.20210  0.68400  0.70210  Biso   1.000  C
  H42      1.0000 0.15740  0.65960  0.73320  Biso   1.000  H
  H43      1.0000 0.18070  0.72640  0.68590  Biso   1.000  H
  C60      1.0000 0.32810  0.62770  0.73980  Biso   1.000  C
  H44      1.0000 0.30970  0.59310  0.78150  Biso   1.000  H
  H45      1.0000 0.38880  0.63350  0.74820  Biso   1.000  H
  C61      1.0000 0.97780  0.95130  0.73000  Biso   1.000  C
  H46      1.0000 0.96760  0.91400  0.76500  Biso   1.000  H
  C62      1.0000 0.28250  0.68820  0.76520  Biso   1.000  C
  H47      1.0000 0.31620  0.72580  0.74950  Biso   1.000  H
  H48      1.0000 0.26800  0.68930  0.83260  Biso   1.000  H
  Cd3      1.0000 0.75066  0.59010  0.61241  Biso   1.000  Cd
  N7       1.0000 0.74050  0.58470  0.44730  Biso   1.000  N
  N8       1.0000 0.75890  0.60040  0.78100  Biso   1.000  N
  O15      1.0000 0.71730  0.98040  0.36740  Biso   1.000  O
  C63      1.0000 0.79180  0.96000  0.37700  Biso   1.000  C
  O16      1.0000 0.62550  0.64140  0.63690  Biso   1.000  O
  N9       1.0000 0.73480  0.84980  0.38300  Biso   1.000  N
  O17      1.0000 0.85250  0.99790  0.39150  Biso   1.000  O
  O18      1.0000 0.32220  0.79560  0.42330  Biso   1.000  O
  O19      1.0000 0.39110  0.88820  0.40760  Biso   1.000  O
  C64      1.0000 0.56080  0.65000  0.59020  Biso   1.000  C
  C65      1.0000 0.53820  0.54640  0.80970  Biso   1.000  C
  H49      1.0000 0.56550  0.57890  0.77580  Biso   1.000  H
  C66      1.0000 0.80870  0.88970  0.36500  Biso   1.000  C
  H50      1.0000 0.85590  0.87640  0.40630  Biso   1.000  H
  O20      1.0000 0.50100  0.61080  0.57760  Biso   1.000  O
  C67      1.0000 0.46820  0.80010  0.46450  Biso   1.000  C
  C68      1.0000 0.55160  0.71620  0.54140  Biso   1.000  C
  C69      1.0000 0.47560  0.73830  0.50580  Biso   1.000  C
  H51      1.0000 0.42780  0.71190  0.50880  Biso   1.000  H
  O21      1.0000 0.73450  0.87710  0.53900  Biso   1.000  O
  C70      1.0000 0.62470  0.75290  0.53200  Biso   1.000  C
  H52      1.0000 0.67580  0.73830  0.55770  Biso   1.000  H
  C71      1.0000 0.74370  0.57220  0.24450  Biso   1.000  C
  C72      1.0000 0.75750  0.60830  0.97600  Biso   1.000  C
  C73      1.0000 0.74150  0.65310  0.81980  Biso   1.000  C
  H53      1.0000 0.73330  0.68900  0.78140  Biso   1.000  H
  C74      1.0000 0.75600  0.61560  0.08460  Biso   1.000  C
  H54      1.0000 0.75810  0.65750  0.10780  Biso   1.000  H
  C75      1.0000 0.78380  0.55220  0.93100  Biso   1.000  C
  H55      1.0000 0.80580  0.51800  0.96580  Biso   1.000  H
  C76      1.0000 0.73380  0.65960  0.92030  Biso   1.000  C
  H56      1.0000 0.71350  0.69740  0.94760  Biso   1.000  H
  C77      1.0000 0.62180  0.81130  0.48430  Biso   1.000  C
  C78      1.0000 0.77600  0.54910  0.83320  Biso   1.000  C
  H57      1.0000 0.78300  0.50970  0.80280  Biso   1.000  H
  C79      1.0000 0.74500  0.52550  0.30400  Biso   1.000  C
  H58      1.0000 0.74260  0.48420  0.27880  Biso   1.000  H
  C80      1.0000 0.72430  0.63350  0.39320  Biso   1.000  C
  H59      1.0000 0.70890  0.67240  0.42090  Biso   1.000  H
  C81      1.0000 0.75230  0.57140  0.14710  Biso   1.000  C
  H60      1.0000 0.75620  0.53030  0.12150  Biso   1.000  H
  C82      1.0000 0.53890  0.54850  0.90890  Biso   1.000  C
  H61      1.0000 0.56550  0.58230  0.94060  Biso   1.000  H
  C83      1.0000 0.70300  0.84820  0.47380  Biso   1.000  C
  C84      1.0000 0.72960  0.62870  0.29290  Biso   1.000  C
  H62      1.0000 0.72310  0.66610  0.25720  Biso   1.000  H
  C85      1.0000 0.50600  0.52380  0.11740  Biso   1.000  C
  C86      1.0000 0.74950  0.53090  0.40020  Biso   1.000  C
  H63      1.0000 0.75970  0.49370  0.43530  Biso   1.000  H
  C87      1.0000 0.54770  0.83510  0.45400  Biso   1.000  C
  H64      1.0000 0.54680  0.87540  0.42520  Biso   1.000  H
  C88      1.0000 0.39040  0.82870  0.42890  Biso   1.000  C
  C89      1.0000 0.46630  0.55040  0.37800  Biso   1.000  C
  H65      1.0000 0.43770  0.58410  0.40760  Biso   1.000  H
  C90      1.0000 0.70210  0.81600  0.29790  Biso   1.000  C
  H66      1.0000 0.65740  0.84040  0.26680  Biso   1.000  H
  H67      1.0000 0.68070  0.77360  0.31410  Biso   1.000  H
  C91      1.0000 0.82810  0.87230  0.26020  Biso   1.000  C
  H68      1.0000 0.80970  0.90690  0.21850  Biso   1.000  H
  H69      1.0000 0.88880  0.86650  0.25180  Biso   1.000  H
  C92      1.0000 0.47780  0.54870  0.27000  Biso   1.000  C
  H70      1.0000 0.46760  0.58600  0.23500  Biso   1.000  H
  C93      1.0000 0.78250  0.81180  0.23480  Biso   1.000  C
  H71      1.0000 0.81620  0.77420  0.25050  Biso   1.000  H
  H72      1.0000 0.76800  0.81070  0.16740  Biso   1.000  H
  Cd4      1.0000 0.24934  0.40990  0.61241  Biso   1.000  Cd
  N10      1.0000 0.25950  0.41530  0.44730  Biso   1.000  N
  N11      1.0000 0.24110  0.39960  0.78100  Biso   1.000  N
  O22      1.0000 0.28270  0.01960  0.36740  Biso   1.000  O
  C94      1.0000 0.20820  0.04000  0.37700  Biso   1.000  C
  O23      1.0000 0.37450  0.35860  0.63690  Biso   1.000  O
  N12      1.0000 0.26520  0.15020  0.38300  Biso   1.000  N
  O24      1.0000 0.14750  0.00210  0.39150  Biso   1.000  O
  O25      1.0000 0.67780  0.20440  0.42330  Biso   1.000  O
  O26      1.0000 0.60890  0.11180  0.40760  Biso   1.000  O
  C95      1.0000 0.43920  0.35000  0.59020  Biso   1.000  C
  C96      1.0000 0.46180  0.45360  0.80970  Biso   1.000  C
  H73      1.0000 0.43450  0.42110  0.77580  Biso   1.000  H
  C97      1.0000 0.19130  0.11030  0.36500  Biso   1.000  C
  H74      1.0000 0.14410  0.12360  0.40630  Biso   1.000  H
  O27      1.0000 0.49900  0.38920  0.57760  Biso   1.000  O
  C98      1.0000 0.53180  0.19990  0.46450  Biso   1.000  C
  C99      1.0000 0.44840  0.28380  0.54140  Biso   1.000  C
  C100     1.0000 0.52440  0.26170  0.50580  Biso   1.000  C
  H75      1.0000 0.57220  0.28810  0.50880  Biso   1.000  H
  O28      1.0000 0.26550  0.12290  0.53900  Biso   1.000  O
  C101     1.0000 0.37530  0.24710  0.53200  Biso   1.000  C
  H76      1.0000 0.32420  0.26170  0.55770  Biso   1.000  H
  C102     1.0000 0.25630  0.42780  0.24450  Biso   1.000  C
  C103     1.0000 0.24250  0.39170  0.97600  Biso   1.000  C
  C104     1.0000 0.25850  0.34690  0.81980  Biso   1.000  C
  H77      1.0000 0.26670  0.31100  0.78140  Biso   1.000  H
  C105     1.0000 0.24400  0.38440  0.08460  Biso   1.000  C
  H78      1.0000 0.24190  0.34250  0.10780  Biso   1.000  H
  C106     1.0000 0.21620  0.44780  0.93100  Biso   1.000  C
  H79      1.0000 0.19420  0.48200  0.96580  Biso   1.000  H
  C107     1.0000 0.26620  0.34040  0.92030  Biso   1.000  C
  H80      1.0000 0.28650  0.30260  0.94760  Biso   1.000  H
  C108     1.0000 0.37820  0.18870  0.48430  Biso   1.000  C
  C109     1.0000 0.22400  0.45090  0.83320  Biso   1.000  C
  H81      1.0000 0.21700  0.49030  0.80280  Biso   1.000  H
  C110     1.0000 0.25500  0.47450  0.30400  Biso   1.000  C
  H82      1.0000 0.25740  0.51580  0.27880  Biso   1.000  H
  C111     1.0000 0.27570  0.36650  0.39320  Biso   1.000  C
  H83      1.0000 0.29110  0.32760  0.42090  Biso   1.000  H
  C112     1.0000 0.24770  0.42860  0.14710  Biso   1.000  C
  H84      1.0000 0.24380  0.46970  0.12150  Biso   1.000  H
  C113     1.0000 0.46110  0.45150  0.90890  Biso   1.000  C
  H85      1.0000 0.43450  0.41770  0.94060  Biso   1.000  H
  C114     1.0000 0.29700  0.15180  0.47380  Biso   1.000  C
  C115     1.0000 0.27040  0.37130  0.29290  Biso   1.000  C
  H86      1.0000 0.27690  0.33390  0.25720  Biso   1.000  H
  C116     1.0000 0.49400  0.47620  0.11740  Biso   1.000  C
  C117     1.0000 0.25050  0.46910  0.40020  Biso   1.000  C
  H87      1.0000 0.24030  0.50630  0.43530  Biso   1.000  H
  C118     1.0000 0.45230  0.16490  0.45400  Biso   1.000  C
  H88      1.0000 0.45320  0.12460  0.42520  Biso   1.000  H
  C119     1.0000 0.60960  0.17130  0.42890  Biso   1.000  C
  C120     1.0000 0.53370  0.44960  0.37800  Biso   1.000  C
  H89      1.0000 0.56230  0.41590  0.40760  Biso   1.000  H
  C121     1.0000 0.29790  0.18400  0.29790  Biso   1.000  C
  H90      1.0000 0.34260  0.15960  0.26680  Biso   1.000  H
  H91      1.0000 0.31930  0.22640  0.31410  Biso   1.000  H
  C122     1.0000 0.17190  0.12770  0.26020  Biso   1.000  C
  H92      1.0000 0.19030  0.09310  0.21850  Biso   1.000  H
  H93      1.0000 0.11120  0.13350  0.25180  Biso   1.000  H
  C123     1.0000 0.52220  0.45130  0.27000  Biso   1.000  C
  H94      1.0000 0.53240  0.41400  0.23500  Biso   1.000  H
  C124     1.0000 0.21750  0.18820  0.23480  Biso   1.000  C
  H95      1.0000 0.18380  0.22580  0.25050  Biso   1.000  H
  H96      1.0000 0.23200  0.18930  0.16740  Biso   1.000  H
  Cd5      1.0000 0.00000  0.00000  0.40313  Biso   1.000  Cd
  N13      1.0000 0.00000  0.00000  0.23820  Biso   1.000  N
  N14      1.0000 0.00000  0.00000  0.56900  Biso   1.000  N
  C125     1.0000 0.00000  0.00000  0.77400  Biso   1.000  C
  C126     1.0000 0.00000  0.00000  0.03970  Biso   1.000  C
  Cd6      1.0000 0.50000  0.50000  0.59687  Biso   1.000  Cd
  N15      1.0000 0.50000  0.50000  0.76180  Biso   1.000  N
  N16      1.0000 0.50000  0.50000  0.43100  Biso   1.000  N
  C127     1.0000 0.50000  0.50000  0.22600  Biso   1.000  C
  C128     1.0000 0.50000  0.50000  0.96030  Biso   1.000  C
