data_image0
_cell_length_a       15.9133
_cell_length_b       20.9595
_cell_length_c       13.9143
_cell_angle_alpha    90
_cell_angle_beta     90
_cell_angle_gamma    90

_symmetry_space_group_name_H-M    "P 1"
_symmetry_int_tables_number       1

loop_
  _symmetry_equiv_pos_as_xyz
  'x, y, z'

loop_
  _atom_site_label
  _atom_site_occupancy
  _atom_site_fract_x
  _atom_site_fract_y
  _atom_site_fract_z
  _atom_site_thermal_displace_type
  _atom_site_B_iso_or_equiv
  _atom_site_type_symbol
  Cd1      1.0000 0.74856  0.40919  0.10109  Biso   1.000  Cd
  N1       1.0000 0.76260  0.41390  0.93370  Biso   1.000  N
  N2       1.0000 0.73540  0.39980  0.26880  Biso   1.000  N
  O1       1.0000 0.85480  0.50210  0.09300  Biso   1.000  O
  O2       1.0000 0.72080  0.51780  0.12260  Biso   1.000  O
  O3       1.0000 0.50310  0.88854  0.93350  Biso   1.000  O
  O4       1.0000 0.39270  0.60920  0.08430  Biso   1.000  O
  O5       1.0000 0.32650  0.69960  0.07060  Biso   1.000  O
  C1       1.0000 0.56130  0.84970  0.91820  Biso   1.000  C
  C2       1.0000 0.39100  0.66820  0.06660  Biso   1.000  C
  C3       1.0000 0.79430  0.53790  0.11310  Biso   1.000  C
  N3       1.0000 0.73760  0.64680  0.10610  Biso   1.000  N
  C4       1.0000 0.62610  0.74620  0.96910  Biso   1.000  C
  H1       1.0000 0.67700  0.76170  0.94600  Biso   1.000  H
  C5       1.0000 0.47830  0.75950  0.99700  Biso   1.000  C
  H2       1.0000 0.43070  0.78520  0.99500  Biso   1.000  H
  C6       1.0000 0.55280  0.78300  0.96240  Biso   1.000  C
  O6       1.0000 0.62620  0.86000  0.87010  Biso   1.000  O
  C7       1.0000 0.76100  0.46530  0.88640  Biso   1.000  C
  H3       1.0000 0.75790  0.50290  0.92170  Biso   1.000  H
  C8       1.0000 0.62140  0.68670  0.01060  Biso   1.000  C
  C9       1.0000 0.47150  0.69720  0.03560  Biso   1.000  C
  C10      1.0000 0.70360  0.64920  0.02010  Biso   1.000  C
  C11      1.0000 0.76160  0.35090  0.31880  Biso   1.000  C
  H4       1.0000 0.78620  0.31720  0.28540  Biso   1.000  H
  C12      1.0000 0.75550  0.34560  0.41540  Biso   1.000  C
  H5       1.0000 0.78020  0.31130  0.44710  Biso   1.000  H
  C13      1.0000 0.54960  0.66310  0.04420  Biso   1.000  C
  H6       1.0000 0.54990  0.62350  0.07410  Biso   1.000  H
  C14      1.0000 0.55090  0.96130  0.70520  Biso   1.000  C
  H7       1.0000 0.58570  0.93430  0.74030  Biso   1.000  H
  C15      1.0000 0.77750  0.42280  0.62590  Biso   1.000  C
  H8       1.0000 0.77820  0.46730  0.60680  Biso   1.000  H
  H9       1.0000 0.83050  0.40380  0.60690  Biso   1.000  H
  C16      1.0000 0.71430  0.38930  0.46430  Biso   1.000  C
  O7       1.0000 0.73120  0.62080  0.95400  Biso   1.000  O
  C17      1.0000 0.70530  0.67830  0.19650  Biso   1.000  C
  H10      1.0000 0.66160  0.65290  0.22640  Biso   1.000  H
  H11      1.0000 0.68360  0.72060  0.18320  Biso   1.000  H
  C18      1.0000 0.76340  0.47120  0.78920  Biso   1.000  C
  H12      1.0000 0.76240  0.51140  0.76080  Biso   1.000  H
  C19      1.0000 0.53450  0.04770  0.12980  Biso   1.000  C
  H13      1.0000 0.55740  0.08210  0.09650  Biso   1.000  H
  C20      1.0000 0.81080  0.60770  0.12640  Biso   1.000  C
  H14      1.0000 0.85630  0.62050  0.08300  Biso   1.000  H
  C21      1.0000 0.69950  0.44520  0.32180  Biso   1.000  C
  H15      1.0000 0.68340  0.48290  0.29180  Biso   1.000  H
  C22      1.0000 0.83620  0.62320  0.22770  Biso   1.000  C
  H16      1.0000 0.89600  0.63200  0.23010  Biso   1.000  H
  H17      1.0000 0.82470  0.58710  0.26920  Biso   1.000  H
  C23      1.0000 0.76740  0.41800  0.73410  Biso   1.000  C
  C24      1.0000 0.68510  0.43890  0.41970  Biso   1.000  C
  H18      1.0000 0.65490  0.46980  0.45290  Biso   1.000  H
  C25      1.0000 0.77030  0.36330  0.78080  Biso   1.000  C
  H19      1.0000 0.77210  0.32500  0.74710  Biso   1.000  H
  C26      1.0000 0.77070  0.36320  0.87950  Biso   1.000  C
  H20      1.0000 0.77730  0.32400  0.91020  Biso   1.000  H
  C27      1.0000 0.70870  0.39020  0.57780  Biso   1.000  C
  H21      1.0000 0.65640  0.41050  0.59620  Biso   1.000  H
  H22      1.0000 0.70680  0.34640  0.60060  Biso   1.000  H
  C28      1.0000 0.78690  0.68170  0.26270  Biso   1.000  C
  H23      1.0000 0.81810  0.72090  0.25200  Biso   1.000  H
  H24      1.0000 0.77270  0.67820  0.33020  Biso   1.000  H
  C29      1.0000 0.55360  0.95970  0.61030  Biso   1.000  C
  C30      1.0000 0.53730  0.04750  0.23300  Biso   1.000  C
  H25      1.0000 0.56470  0.08010  0.26580  Biso   1.000  H
  C31      1.0000 0.50500  0.97500  0.38200  Biso   1.000  C
  C32      1.0000 0.47750  0.98200  0.55850  Biso   1.000  C
  C33      1.0000 0.52950  0.03100  0.42540  Biso   1.000  C
  Cd2      1.0000 0.25144  0.59081  0.10109  Biso   1.000  Cd
  N4       1.0000 0.23740  0.58610  0.93370  Biso   1.000  N
  N5       1.0000 0.26460  0.60020  0.26880  Biso   1.000  N
  O8       1.0000 0.14520  0.49790  0.09300  Biso   1.000  O
  O9       1.0000 0.27920  0.48220  0.12260  Biso   1.000  O
  O10      1.0000 0.49690  0.11146  0.93350  Biso   1.000  O
  O11      1.0000 0.60730  0.39080  0.08430  Biso   1.000  O
  O12      1.0000 0.67350  0.30040  0.07060  Biso   1.000  O
  C34      1.0000 0.43870  0.15030  0.91820  Biso   1.000  C
  C35      1.0000 0.60900  0.33180  0.06660  Biso   1.000  C
  C36      1.0000 0.20570  0.46210  0.11310  Biso   1.000  C
  N6       1.0000 0.26240  0.35320  0.10610  Biso   1.000  N
  C37      1.0000 0.37390  0.25380  0.96910  Biso   1.000  C
  H26      1.0000 0.32300  0.23830  0.94600  Biso   1.000  H
  C38      1.0000 0.52170  0.24050  0.99700  Biso   1.000  C
  H27      1.0000 0.56930  0.21480  0.99500  Biso   1.000  H
  C39      1.0000 0.44720  0.21700  0.96240  Biso   1.000  C
  O13      1.0000 0.37380  0.14000  0.87010  Biso   1.000  O
  C40      1.0000 0.23900  0.53470  0.88640  Biso   1.000  C
  H28      1.0000 0.24210  0.49710  0.92170  Biso   1.000  H
  C41      1.0000 0.37860  0.31330  0.01060  Biso   1.000  C
  C42      1.0000 0.52850  0.30280  0.03560  Biso   1.000  C
  C43      1.0000 0.29640  0.35080  0.02010  Biso   1.000  C
  C44      1.0000 0.23840  0.64910  0.31880  Biso   1.000  C
  H29      1.0000 0.21380  0.68280  0.28540  Biso   1.000  H
  C45      1.0000 0.24450  0.65440  0.41540  Biso   1.000  C
  H30      1.0000 0.21980  0.68870  0.44710  Biso   1.000  H
  C46      1.0000 0.45040  0.33690  0.04420  Biso   1.000  C
  H31      1.0000 0.45010  0.37650  0.07410  Biso   1.000  H
  C47      1.0000 0.44910  0.03870  0.70520  Biso   1.000  C
  H32      1.0000 0.41430  0.06570  0.74030  Biso   1.000  H
  C48      1.0000 0.22250  0.57720  0.62590  Biso   1.000  C
  H33      1.0000 0.22180  0.53270  0.60680  Biso   1.000  H
  H34      1.0000 0.16950  0.59620  0.60690  Biso   1.000  H
  C49      1.0000 0.28570  0.61070  0.46430  Biso   1.000  C
  O14      1.0000 0.26880  0.37920  0.95400  Biso   1.000  O
  C50      1.0000 0.29470  0.32170  0.19650  Biso   1.000  C
  H35      1.0000 0.33840  0.34710  0.22640  Biso   1.000  H
  H36      1.0000 0.31640  0.27940  0.18320  Biso   1.000  H
  C51      1.0000 0.23660  0.52880  0.78920  Biso   1.000  C
  H37      1.0000 0.23760  0.48860  0.76080  Biso   1.000  H
  C52      1.0000 0.46550  0.95230  0.12980  Biso   1.000  C
  H38      1.0000 0.44260  0.91790  0.09650  Biso   1.000  H
  C53      1.0000 0.18920  0.39230  0.12640  Biso   1.000  C
  H39      1.0000 0.14370  0.37950  0.08300  Biso   1.000  H
  C54      1.0000 0.30050  0.55480  0.32180  Biso   1.000  C
  H40      1.0000 0.31660  0.51710  0.29180  Biso   1.000  H
  C55      1.0000 0.16380  0.37680  0.22770  Biso   1.000  C
  H41      1.0000 0.10400  0.36800  0.23010  Biso   1.000  H
  H42      1.0000 0.17530  0.41290  0.26920  Biso   1.000  H
  C56      1.0000 0.23260  0.58200  0.73410  Biso   1.000  C
  C57      1.0000 0.31490  0.56110  0.41970  Biso   1.000  C
  H43      1.0000 0.34510  0.53020  0.45290  Biso   1.000  H
  C58      1.0000 0.22970  0.63670  0.78080  Biso   1.000  C
  H44      1.0000 0.22790  0.67500  0.74710  Biso   1.000  H
  C59      1.0000 0.22930  0.63680  0.87950  Biso   1.000  C
  H45      1.0000 0.22270  0.67600  0.91020  Biso   1.000  H
  C60      1.0000 0.29130  0.60980  0.57780  Biso   1.000  C
  H46      1.0000 0.34360  0.58950  0.59620  Biso   1.000  H
  H47      1.0000 0.29320  0.65360  0.60060  Biso   1.000  H
  C61      1.0000 0.21310  0.31830  0.26270  Biso   1.000  C
  H48      1.0000 0.18190  0.27910  0.25200  Biso   1.000  H
  H49      1.0000 0.22730  0.32180  0.33020  Biso   1.000  H
  C62      1.0000 0.44640  0.04030  0.61030  Biso   1.000  C
  C63      1.0000 0.46270  0.95250  0.23300  Biso   1.000  C
  H50      1.0000 0.43530  0.91990  0.26580  Biso   1.000  H
  C64      1.0000 0.49500  0.02500  0.38200  Biso   1.000  C
  C65      1.0000 0.52250  0.01800  0.55850  Biso   1.000  C
  C66      1.0000 0.47050  0.96900  0.42540  Biso   1.000  C
  Cd3      1.0000 0.75144  0.90919  0.89891  Biso   1.000  Cd
  N7       1.0000 0.73740  0.91390  0.06630  Biso   1.000  N
  N8       1.0000 0.76460  0.89980  0.73120  Biso   1.000  N
  O15      1.0000 0.64520  0.00210  0.90700  Biso   1.000  O
  O16      1.0000 0.77920  0.01780  0.87740  Biso   1.000  O
  O17      1.0000 0.99690  0.38854  0.06650  Biso   1.000  O
  O18      1.0000 0.10730  0.10920  0.91570  Biso   1.000  O
  O19      1.0000 0.17350  0.19960  0.92940  Biso   1.000  O
  C67      1.0000 0.93870  0.34970  0.08180  Biso   1.000  C
  C68      1.0000 0.10900  0.16820  0.93340  Biso   1.000  C
  C69      1.0000 0.70570  0.03790  0.88690  Biso   1.000  C
  N9       1.0000 0.76240  0.14680  0.89390  Biso   1.000  N
  C70      1.0000 0.87390  0.24620  0.03090  Biso   1.000  C
  H51      1.0000 0.82300  0.26170  0.05400  Biso   1.000  H
  C71      1.0000 0.02170  0.25950  0.00300  Biso   1.000  C
  H52      1.0000 0.06930  0.28520  0.00500  Biso   1.000  H
  C72      1.0000 0.94720  0.28300  0.03760  Biso   1.000  C
  O20      1.0000 0.87380  0.36000  0.12990  Biso   1.000  O
  C73      1.0000 0.73900  0.96530  0.11360  Biso   1.000  C
  H53      1.0000 0.74210  0.00290  0.07830  Biso   1.000  H
  C74      1.0000 0.87860  0.18670  0.98940  Biso   1.000  C
  C75      1.0000 0.02850  0.19720  0.96440  Biso   1.000  C
  C76      1.0000 0.79640  0.14920  0.97990  Biso   1.000  C
  C77      1.0000 0.73840  0.85090  0.68120  Biso   1.000  C
  H54      1.0000 0.71380  0.81720  0.71460  Biso   1.000  H
  C78      1.0000 0.74450  0.84560  0.58460  Biso   1.000  C
  H55      1.0000 0.71980  0.81130  0.55290  Biso   1.000  H
  C79      1.0000 0.95040  0.16310  0.95580  Biso   1.000  C
  H56      1.0000 0.95010  0.12350  0.92590  Biso   1.000  H
  C80      1.0000 0.94910  0.46130  0.29480  Biso   1.000  C
  H57      1.0000 0.91430  0.43430  0.25970  Biso   1.000  H
  C81      1.0000 0.72250  0.92280  0.37410  Biso   1.000  C
  H58      1.0000 0.72180  0.96730  0.39320  Biso   1.000  H
  H59      1.0000 0.66950  0.90380  0.39310  Biso   1.000  H
  C82      1.0000 0.78570  0.88930  0.53570  Biso   1.000  C
  O21      1.0000 0.76880  0.12080  0.04600  Biso   1.000  O
  C83      1.0000 0.79470  0.17830  0.80350  Biso   1.000  C
  H60      1.0000 0.83840  0.15290  0.77360  Biso   1.000  H
  H61      1.0000 0.81640  0.22060  0.81680  Biso   1.000  H
  C84      1.0000 0.73660  0.97120  0.21080  Biso   1.000  C
  H62      1.0000 0.73760  0.01140  0.23920  Biso   1.000  H
  C85      1.0000 0.96550  0.54770  0.87020  Biso   1.000  C
  H63      1.0000 0.94260  0.58210  0.90350  Biso   1.000  H
  C86      1.0000 0.68920  0.10770  0.87360  Biso   1.000  C
  H64      1.0000 0.64370  0.12050  0.91700  Biso   1.000  H
  C87      1.0000 0.80050  0.94520  0.67820  Biso   1.000  C
  H65      1.0000 0.81660  0.98290  0.70820  Biso   1.000  H
  C88      1.0000 0.66380  0.12320  0.77230  Biso   1.000  C
  H66      1.0000 0.60400  0.13200  0.76990  Biso   1.000  H
  H67      1.0000 0.67530  0.08710  0.73080  Biso   1.000  H
  C89      1.0000 0.73260  0.91800  0.26590  Biso   1.000  C
  C90      1.0000 0.81490  0.93890  0.58030  Biso   1.000  C
  H68      1.0000 0.84510  0.96980  0.54710  Biso   1.000  H
  C91      1.0000 0.72970  0.86330  0.21920  Biso   1.000  C
  H69      1.0000 0.72790  0.82500  0.25290  Biso   1.000  H
  C92      1.0000 0.72930  0.86320  0.12050  Biso   1.000  C
  H70      1.0000 0.72270  0.82400  0.08980  Biso   1.000  H
  C93      1.0000 0.79130  0.89020  0.42220  Biso   1.000  C
  H71      1.0000 0.84360  0.91050  0.40380  Biso   1.000  H
  H72      1.0000 0.79320  0.84640  0.39940  Biso   1.000  H
  C94      1.0000 0.71310  0.18170  0.73730  Biso   1.000  C
  H73      1.0000 0.68190  0.22090  0.74800  Biso   1.000  H
  H74      1.0000 0.72730  0.17820  0.66980  Biso   1.000  H
  C95      1.0000 0.94640  0.45970  0.38970  Biso   1.000  C
  C96      1.0000 0.96270  0.54750  0.76700  Biso   1.000  C
  H75      1.0000 0.93530  0.58010  0.73420  Biso   1.000  H
  C97      1.0000 0.99500  0.47500  0.61800  Biso   1.000  C
  C98      1.0000 0.02250  0.48200  0.44150  Biso   1.000  C
  C99      1.0000 0.97050  0.53100  0.57460  Biso   1.000  C
  Cd4      1.0000 0.24856  0.09081  0.89891  Biso   1.000  Cd
  N10      1.0000 0.26260  0.08610  0.06630  Biso   1.000  N
  N11      1.0000 0.23540  0.10020  0.73120  Biso   1.000  N
  O22      1.0000 0.35480  0.99790  0.90700  Biso   1.000  O
  O23      1.0000 0.22080  0.98220  0.87740  Biso   1.000  O
  O24      1.0000 0.00310  0.61146  0.06650  Biso   1.000  O
  O25      1.0000 0.89270  0.89080  0.91570  Biso   1.000  O
  O26      1.0000 0.82650  0.80040  0.92940  Biso   1.000  O
  C100     1.0000 0.06130  0.65030  0.08180  Biso   1.000  C
  C101     1.0000 0.89100  0.83180  0.93340  Biso   1.000  C
  C102     1.0000 0.29430  0.96210  0.88690  Biso   1.000  C
  N12      1.0000 0.23760  0.85320  0.89390  Biso   1.000  N
  C103     1.0000 0.12610  0.75380  0.03090  Biso   1.000  C
  H76      1.0000 0.17700  0.73830  0.05400  Biso   1.000  H
  C104     1.0000 0.97830  0.74050  0.00300  Biso   1.000  C
  H77      1.0000 0.93070  0.71480  0.00500  Biso   1.000  H
  C105     1.0000 0.05280  0.71700  0.03760  Biso   1.000  C
  O27      1.0000 0.12620  0.64000  0.12990  Biso   1.000  O
  C106     1.0000 0.26100  0.03470  0.11360  Biso   1.000  C
  H78      1.0000 0.25790  0.99710  0.07830  Biso   1.000  H
  C107     1.0000 0.12140  0.81330  0.98940  Biso   1.000  C
  C108     1.0000 0.97150  0.80280  0.96440  Biso   1.000  C
  C109     1.0000 0.20360  0.85080  0.97990  Biso   1.000  C
  C110     1.0000 0.26160  0.14910  0.68120  Biso   1.000  C
  H79      1.0000 0.28620  0.18280  0.71460  Biso   1.000  H
  C111     1.0000 0.25550  0.15440  0.58460  Biso   1.000  C
  H80      1.0000 0.28020  0.18870  0.55290  Biso   1.000  H
  C112     1.0000 0.04960  0.83690  0.95580  Biso   1.000  C
  H81      1.0000 0.04990  0.87650  0.92590  Biso   1.000  H
  C113     1.0000 0.05090  0.53870  0.29480  Biso   1.000  C
  H82      1.0000 0.08570  0.56570  0.25970  Biso   1.000  H
  C114     1.0000 0.27750  0.07720  0.37410  Biso   1.000  C
  H83      1.0000 0.27820  0.03270  0.39320  Biso   1.000  H
  H84      1.0000 0.33050  0.09620  0.39310  Biso   1.000  H
  C115     1.0000 0.21430  0.11070  0.53570  Biso   1.000  C
  O28      1.0000 0.23120  0.87920  0.04600  Biso   1.000  O
  C116     1.0000 0.20530  0.82170  0.80350  Biso   1.000  C
  H85      1.0000 0.16160  0.84710  0.77360  Biso   1.000  H
  H86      1.0000 0.18360  0.77940  0.81680  Biso   1.000  H
  C117     1.0000 0.26340  0.02880  0.21080  Biso   1.000  C
  H87      1.0000 0.26240  0.98860  0.23920  Biso   1.000  H
  C118     1.0000 0.03450  0.45230  0.87020  Biso   1.000  C
  H88      1.0000 0.05740  0.41790  0.90350  Biso   1.000  H
  C119     1.0000 0.31080  0.89230  0.87360  Biso   1.000  C
  H89      1.0000 0.35630  0.87950  0.91700  Biso   1.000  H
  C120     1.0000 0.19950  0.05480  0.67820  Biso   1.000  C
  H90      1.0000 0.18340  0.01710  0.70820  Biso   1.000  H
  C121     1.0000 0.33620  0.87680  0.77230  Biso   1.000  C
  H91      1.0000 0.39600  0.86800  0.76990  Biso   1.000  H
  H92      1.0000 0.32470  0.91290  0.73080  Biso   1.000  H
  C122     1.0000 0.26740  0.08200  0.26590  Biso   1.000  C
  C123     1.0000 0.18510  0.06110  0.58030  Biso   1.000  C
  H93      1.0000 0.15490  0.03020  0.54710  Biso   1.000  H
  C124     1.0000 0.27030  0.13670  0.21920  Biso   1.000  C
  H94      1.0000 0.27210  0.17500  0.25290  Biso   1.000  H
  C125     1.0000 0.27070  0.13680  0.12050  Biso   1.000  C
  H95      1.0000 0.27730  0.17600  0.08980  Biso   1.000  H
  C126     1.0000 0.20870  0.10980  0.42220  Biso   1.000  C
  H96      1.0000 0.15640  0.08950  0.40380  Biso   1.000  H
  H97      1.0000 0.20680  0.15360  0.39940  Biso   1.000  H
  C127     1.0000 0.28690  0.81830  0.73730  Biso   1.000  C
  H98      1.0000 0.31810  0.77910  0.74800  Biso   1.000  H
  H99      1.0000 0.27270  0.82180  0.66980  Biso   1.000  H
  C128     1.0000 0.05360  0.54030  0.38970  Biso   1.000  C
  C129     1.0000 0.03730  0.45250  0.76700  Biso   1.000  C
  H100     1.0000 0.06470  0.41990  0.73420  Biso   1.000  H
  C130     1.0000 0.00500  0.52500  0.61800  Biso   1.000  C
  C131     1.0000 0.97750  0.51800  0.44150  Biso   1.000  C
  C132     1.0000 0.02950  0.46900  0.57460  Biso   1.000  C
  Cd5      1.0000 0.50000  0.00000  0.91742  Biso   1.000  Cd
  N13      1.0000 0.50000  0.00000  0.75100  Biso   1.000  N
  C133     1.0000 0.50000  0.00000  0.28170  Biso   1.000  C
  N14      1.0000 0.50000  0.00000  0.08080  Biso   1.000  N
  Cd6      1.0000 0.00000  0.50000  0.08258  Biso   1.000  Cd
  N15      1.0000 0.00000  0.50000  0.24900  Biso   1.000  N
  C134     1.0000 0.00000  0.50000  0.71830  Biso   1.000  C
  N16      1.0000 0.00000  0.50000  0.91920  Biso   1.000  N
