data_image0
_cell_length_a       13.4617
_cell_length_b       19.9956
_cell_length_c       17.2734
_cell_angle_alpha    90
_cell_angle_beta     110.777
_cell_angle_gamma    90

_symmetry_space_group_name_H-M    "P 1"
_symmetry_int_tables_number       1

loop_
  _symmetry_equiv_pos_as_xyz
  'x, y, z'

loop_
  _atom_site_label
  _atom_site_occupancy
  _atom_site_fract_x
  _atom_site_fract_y
  _atom_site_fract_z
  _atom_site_thermal_displace_type
  _atom_site_B_iso_or_equiv
  _atom_site_type_symbol
  Cd1      1.0000 0.13605  0.57691  0.76428  Biso   1.000  Cd
  Cd2      1.0000 0.46804  0.38949  0.23787  Biso   1.000  Cd
  Cd3      1.0000 0.16379  0.75827  0.26866  Biso   1.000  Cd
  C1       1.0000 0.22890  0.92600  0.78540  Biso   1.000  C
  H1       1.0000 0.20420  0.88310  0.79920  Biso   1.000  H
  C2       1.0000 0.94290  0.70490  0.28050  Biso   1.000  C
  H2       1.0000 0.99040  0.68610  0.32870  Biso   1.000  H
  N1       1.0000 0.65330  0.26610  0.68760  Biso   1.000  N
  C3       1.0000 0.76380  0.71900  0.18930  Biso   1.000  C
  N2       1.0000 0.98160  0.74150  0.23210  Biso   1.000  N
  C4       1.0000 0.11810  0.69110  0.66950  Biso   1.000  C
  N3       1.0000 0.67450  0.07960  0.18740  Biso   1.000  N
  C5       1.0000 0.11940  0.75570  0.62310  Biso   1.000  C
  C6       1.0000 0.49470  0.30160  0.70780  Biso   1.000  C
  H3       1.0000 0.46390  0.32850  0.73700  Biso   1.000  H
  O1       1.0000 0.16800  0.63160  0.26560  Biso   1.000  O
  O2       1.0000 0.39280  0.87470  0.80810  Biso   1.000  O
  C7       1.0000 0.13510  0.75040  0.54780  Biso   1.000  C
  H4       1.0000 0.14040  0.70880  0.52560  Biso   1.000  H
  O3       1.0000 0.16100  0.85890  0.38520  Biso   1.000  O
  C8       1.0000 0.10080  0.45980  0.10730  Biso   1.000  C
  N4       1.0000 0.43820  0.49460  0.17540  Biso   1.000  N
  O4       1.0000 0.33500  0.94570  0.70180  Biso   1.000  O
  C9       1.0000 0.10870  0.81670  0.65600  Biso   1.000  C
  H5       1.0000 0.09840  0.81880  0.70640  Biso   1.000  H
  C10      1.0000 0.05200  0.39790  0.12700  Biso   1.000  C
  C11      1.0000 0.15580  0.58370  0.05900  Biso   1.000  C
  H6       1.0000 0.17290  0.62510  0.04270  Biso   1.000  H
  O5       1.0000 0.17190  0.74820  0.40170  Biso   1.000  O
  C12      1.0000 0.11980  0.51430  0.16060  Biso   1.000  C
  H7       1.0000 0.11420  0.50920  0.21250  Biso   1.000  H
  C13      1.0000 0.13910  0.53000  0.00560  Biso   1.000  C
  O6       1.0000 0.16420  0.69350  0.15810  Biso   1.000  O
  C14      1.0000 0.14270  0.80970  0.50590  Biso   1.000  C
  N5       1.0000 0.13660  0.48420  0.68410  Biso   1.000  N
  C15      1.0000 0.44740  0.61890  0.10280  Biso   1.000  C
  C16      1.0000 0.14750  0.57690  0.13720  Biso   1.000  C
  N6       1.0000 0.07220  0.33830  0.10320  Biso   1.000  N
  C17      1.0000 0.43950  0.61480  0.18240  Biso   1.000  C
  H8       1.0000 0.43750  0.65320  0.21210  Biso   1.000  H
  O7       1.0000 0.34210  0.35020  0.10580  Biso   1.000  O
  C18      1.0000 0.11080  0.42400  0.69900  Biso   1.000  C
  H9       1.0000 0.09290  0.41720  0.74560  Biso   1.000  H
  C19      1.0000 0.11210  0.46800  0.02840  Biso   1.000  C
  H10      1.0000 0.10130  0.43180  0.99250  Biso   1.000  H
  C20      1.0000 0.44700  0.56080  0.06150  Biso   1.000  C
  H11      1.0000 0.44970  0.56200  0.00850  Biso   1.000  H
  C21      1.0000 0.14320  0.32160  0.52230  Biso   1.000  C
  H12      1.0000 0.10750  0.33500  0.46510  Biso   1.000  H
  H13      1.0000 0.10610  0.28310  0.53280  Biso   1.000  H
  C22      1.0000 0.12620  0.96980  0.15750  Biso   1.000  C
  H14      1.0000 0.11200  0.01150  0.17500  Biso   1.000  H
  C23      1.0000 0.46210  0.68500  0.06670  Biso   1.000  C
  H15      1.0000 0.43550  0.72050  0.09240  Biso   1.000  H
  H16      1.0000 0.42100  0.68530  0.00790  Biso   1.000  H
  C24      1.0000 0.16680  0.90050  0.05990  Biso   1.000  C
  H17      1.0000 0.18120  0.89470  0.01150  Biso   1.000  H
  C25      1.0000 0.12400  0.91330  0.20190  Biso   1.000  C
  H18      1.0000 0.11000  0.91800  0.25060  Biso   1.000  H
  C26      1.0000 0.26050  0.30180  0.53560  Biso   1.000  C
  H19      1.0000 0.26150  0.27340  0.49030  Biso   1.000  H
  H20      1.0000 0.30110  0.34180  0.53540  Biso   1.000  H
  C27      1.0000 0.16130  0.84530  0.10850  Biso   1.000  C
  H21      1.0000 0.17230  0.80290  0.09090  Biso   1.000  H
  C28      1.0000 0.16230  0.63670  0.19180  Biso   1.000  C
  C29      1.0000 0.12810  0.87100  0.53940  Biso   1.000  C
  H22      1.0000 0.12850  0.91030  0.51070  Biso   1.000  H
  N7       1.0000 0.50300  0.28420  0.30180  Biso   1.000  N
  C30      1.0000 0.15860  0.02550  0.03620  Biso   1.000  C
  H23      1.0000 0.11940  0.01770  0.97790  Biso   1.000  H
  H24      1.0000 0.12600  0.06320  0.05340  Biso   1.000  H
  C31      1.0000 0.16500  0.24070  0.08760  Biso   1.000  C
  H25      1.0000 0.18990  0.22010  0.04690  Biso   1.000  H
  H26      1.0000 0.21030  0.22680  0.14260  Biso   1.000  H
  C32      1.0000 0.15010  0.96380  0.08540  Biso   1.000  C
  C33      1.0000 0.33610  0.06910  0.13370  Biso   1.000  C
  H27      1.0000 0.31010  0.11310  0.14060  Biso   1.000  H
  H28      1.0000 0.32550  0.03970  0.17490  Biso   1.000  H
  C34      1.0000 0.61720  0.96230  0.54410  Biso   1.000  C
  H29      1.0000 0.67910  0.97840  0.53850  Biso   1.000  H
  C35      1.0000 0.58000  0.69870  0.08000  Biso   1.000  C
  H30      1.0000 0.60840  0.66140  0.05860  Biso   1.000  H
  H31      1.0000 0.58480  0.73840  0.04920  Biso   1.000  H
  N8       1.0000 0.52760  0.92590  0.63330  Biso   1.000  N
  C36      1.0000 0.16120  0.31860  0.07930  Biso   1.000  C
  H32      1.0000 0.14730  0.33130  0.02160  Biso   1.000  H
  C37      1.0000 0.13830  0.37800  0.57840  Biso   1.000  C
  C38      1.0000 0.61430  0.94810  0.62300  Biso   1.000  C
  H33      1.0000 0.67530  0.95460  0.66920  Biso   1.000  H
  O8       1.0000 0.98860  0.40530  0.16540  Biso   1.000  O
  C39      1.0000 0.61590  0.13380  0.17380  Biso   1.000  C
  H34      1.0000 0.65030  0.17470  0.17780  Biso   1.000  H
  C40      1.0000 0.43500  0.55280  0.21390  Biso   1.000  C
  H35      1.0000 0.42930  0.55050  0.26600  Biso   1.000  H
  C41      1.0000 0.10880  0.36800  0.64730  Biso   1.000  C
  H36      1.0000 0.08840  0.32600  0.65910  Biso   1.000  H
  C42      1.0000 0.59380  0.25100  0.31760  Biso   1.000  C
  H37      1.0000 0.64550  0.26980  0.30000  Biso   1.000  H
  C43      1.0000 0.60350  0.29980  0.72960  Biso   1.000  C
  H38      1.0000 0.64460  0.32340  0.77640  Biso   1.000  H
  C44      1.0000 0.56340  0.09430  0.42660  Biso   1.000  C
  H39      1.0000 0.54820  0.09560  0.47740  Biso   1.000  H
  H40      1.0000 0.63740  0.08210  0.44010  Biso   1.000  H
  C45      1.0000 0.16630  0.44120  0.56510  Biso   1.000  C
  H41      1.0000 0.18590  0.44940  0.51950  Biso   1.000  H
  C46      1.0000 0.61600  0.19030  0.35860  Biso   1.000  C
  H42      1.0000 0.68090  0.16940  0.36800  Biso   1.000  H
  C47      1.0000 0.16650  0.49310  0.61700  Biso   1.000  C
  H43      1.0000 0.18740  0.53540  0.60630  Biso   1.000  H
  C48      1.0000 0.62210  0.02080  0.17750  Biso   1.000  C
  H44      1.0000 0.66100  0.98150  0.18260  Biso   1.000  H
  C49      1.0000 0.54240  0.16140  0.38510  Biso   1.000  C
  C50      1.0000 0.15970  0.80540  0.42480  Biso   1.000  C
  C51      1.0000 0.26840  0.34640  0.13460  Biso   1.000  C
  C52      1.0000 0.01100  0.28050  0.11450  Biso   1.000  C
  H45      1.0000 0.93520  0.28830  0.08880  Biso   1.000  H
  H46      1.0000 0.02770  0.27080  0.17280  Biso   1.000  H
  C53      1.0000 0.43240  0.25520  0.32950  Biso   1.000  C
  H47      1.0000 0.36840  0.27710  0.32100  Biso   1.000  H
  C54      1.0000 0.52930  0.95220  0.47640  Biso   1.000  C
  C55      1.0000 0.44250  0.49860  0.09920  Biso   1.000  C
  H48      1.0000 0.44250  0.45940  0.07030  Biso   1.000  H
  C56      1.0000 0.45290  0.07340  0.14830  Biso   1.000  C
  C57      1.0000 0.51550  0.01580  0.16030  Biso   1.000  C
  H49      1.0000 0.48420  0.97390  0.15640  Biso   1.000  H
  C58      1.0000 0.43180  0.26350  0.64280  Biso   1.000  C
  C59      1.0000 0.50700  0.13480  0.15410  Biso   1.000  C
  H50      1.0000 0.47000  0.17510  0.14480  Biso   1.000  H
  C60      1.0000 0.64590  0.70870  0.17010  Biso   1.000  C
  H51      1.0000 0.63660  0.67000  0.20070  Biso   1.000  H
  H52      1.0000 0.61850  0.74730  0.19020  Biso   1.000  H
  C61      1.0000 0.14450  0.54080  0.92050  Biso   1.000  C
  C62      1.0000 0.83810  0.69440  0.26160  Biso   1.000  C
  H53      1.0000 0.81510  0.67010  0.29800  Biso   1.000  H
  C63      1.0000 0.80160  0.75510  0.13820  Biso   1.000  C
  H54      1.0000 0.75540  0.77280  0.08880  Biso   1.000  H
  C64      1.0000 0.52700  0.96940  0.39030  Biso   1.000  C
  H55      1.0000 0.47900  0.93910  0.35050  Biso   1.000  H
  H56      1.0000 0.59750  0.96320  0.38810  Biso   1.000  H
  C65      1.0000 0.11300  0.87420  0.61480  Biso   1.000  C
  C66      1.0000 0.91180  0.76460  0.16200  Biso   1.000  C
  H57      1.0000 0.93720  0.78840  0.12670  Biso   1.000  H
  N9       1.0000 0.13860  0.96050  0.72060  Biso   1.000  N
  C67      1.0000 0.32540  0.91430  0.76170  Biso   1.000  C
  C68      1.0000 0.31240  0.26470  0.61760  Biso   1.000  C
  H58      1.0000 0.29320  0.28640  0.66050  Biso   1.000  H
  H59      1.0000 0.28580  0.21910  0.61200  Biso   1.000  H
  C69      1.0000 0.49060  0.04250  0.36590  Biso   1.000  C
  H60      1.0000 0.41850  0.04790  0.36480  Biso   1.000  H
  H61      1.0000 0.49030  0.05120  0.31050  Biso   1.000  H
  C70      1.0000 0.04750  0.22330  0.07100  Biso   1.000  C
  H62      1.0000 0.00660  0.22260  0.01210  Biso   1.000  H
  H63      1.0000 0.04100  0.18020  0.09460  Biso   1.000  H
  C71      1.0000 0.43820  0.92680  0.48740  Biso   1.000  C
  H64      1.0000 0.37750  0.91720  0.44200  Biso   1.000  H
  C72      1.0000 0.27250  0.04290  0.04790  Biso   1.000  C
  H65      1.0000 0.27250  0.07650  0.00740  Biso   1.000  H
  H66      1.0000 0.30740  0.00340  0.03730  Biso   1.000  H
  O9       1.0000 0.12860  0.69590  0.74510  Biso   1.000  O
  O10      1.0000 0.11210  0.63670  0.63440  Biso   1.000  O
  N10      1.0000 0.14140  0.85060  0.17830  Biso   1.000  N
  O11      1.0000 0.95330  0.57820  0.72920  Biso   1.000  O
  H67      1.0000 0.92500  0.58860  0.68040  Biso   1.000  H
  O12      1.0000 0.14480  0.49050  0.87620  Biso   1.000  O
  O13      1.0000 0.14620  0.60000  0.89810  Biso   1.000  O
  O14      1.0000 0.28070  0.36300  0.20910  Biso   1.000  O
  O15      1.0000 0.01290  0.97770  0.59970  Biso   1.000  O
  C73      1.0000 0.25470  0.97270  0.85930  Biso   1.000  C
  H68      1.0000 0.21840  0.95850  0.89600  Biso   1.000  H
  H69      1.0000 0.33050  0.97350  0.89010  Biso   1.000  H
  C74      1.0000 0.12100  0.02720  0.75010  Biso   1.000  C
  H70      1.0000 0.05740  0.02760  0.76430  Biso   1.000  H
  H71      1.0000 0.11430  0.06110  0.70840  Biso   1.000  H
  C75      1.0000 0.59230  0.22950  0.62380  Biso   1.000  C
  H72      1.0000 0.62530  0.20530  0.59370  Biso   1.000  H
  C76      1.0000 0.09040  0.94120  0.64320  Biso   1.000  C
  C77      1.0000 0.44070  0.91620  0.56750  Biso   1.000  C
  H73      1.0000 0.37920  0.90180  0.57520  Biso   1.000  H
  C78      1.0000 0.48370  0.22550  0.59990  Biso   1.000  C
  H74      1.0000 0.44490  0.19810  0.55610  Biso   1.000  H
  C79      1.0000 0.44970  0.19530  0.36960  Biso   1.000  C
  H75      1.0000 0.39730  0.17730  0.38670  Biso   1.000  H
  C80      1.0000 0.21710  0.03860  0.82440  Biso   1.000  C
  H76      1.0000 0.20010  0.06600  0.86430  Biso   1.000  H
  H77      1.0000 0.27140  0.06130  0.80930  Biso   1.000  H
  O16      1.0000 0.07150  0.98610  0.57300  Biso   1.000  O
  Cd4      1.0000 0.86395  0.07691  0.23572  Biso   1.000  Cd
  Cd5      1.0000 0.53196  0.88949  0.76213  Biso   1.000  Cd
  Cd6      1.0000 0.83621  0.25827  0.73134  Biso   1.000  Cd
  C81      1.0000 0.77110  0.42600  0.21460  Biso   1.000  C
  H78      1.0000 0.79580  0.38310  0.20080  Biso   1.000  H
  C82      1.0000 0.05710  0.20490  0.71950  Biso   1.000  C
  H79      1.0000 0.00960  0.18610  0.67130  Biso   1.000  H
  N11      1.0000 0.34670  0.76610  0.31240  Biso   1.000  N
  C83      1.0000 0.23620  0.21900  0.81070  Biso   1.000  C
  N12      1.0000 0.01840  0.24150  0.76790  Biso   1.000  N
  C84      1.0000 0.88190  0.19110  0.33050  Biso   1.000  C
  N13      1.0000 0.32550  0.57960  0.81260  Biso   1.000  N
  C85      1.0000 0.88060  0.25570  0.37690  Biso   1.000  C
  C86      1.0000 0.50530  0.80160  0.29220  Biso   1.000  C
  H80      1.0000 0.53610  0.82850  0.26300  Biso   1.000  H
  O17      1.0000 0.83200  0.13160  0.73440  Biso   1.000  O
  O18      1.0000 0.60720  0.37470  0.19190  Biso   1.000  O
  C87      1.0000 0.86490  0.25040  0.45220  Biso   1.000  C
  H81      1.0000 0.85960  0.20880  0.47440  Biso   1.000  H
  O19      1.0000 0.83900  0.35890  0.61480  Biso   1.000  O
  C88      1.0000 0.89920  0.95980  0.89270  Biso   1.000  C
  N14      1.0000 0.56180  0.99460  0.82460  Biso   1.000  N
  O20      1.0000 0.66500  0.44570  0.29820  Biso   1.000  O
  C89      1.0000 0.89130  0.31670  0.34400  Biso   1.000  C
  H82      1.0000 0.90160  0.31880  0.29360  Biso   1.000  H
  C90      1.0000 0.94800  0.89790  0.87300  Biso   1.000  C
  C91      1.0000 0.84420  0.08370  0.94100  Biso   1.000  C
  H83      1.0000 0.82710  0.12510  0.95730  Biso   1.000  H
  O21      1.0000 0.82810  0.24820  0.59830  Biso   1.000  O
  C92      1.0000 0.88020  0.01430  0.83940  Biso   1.000  C
  H84      1.0000 0.88580  0.00920  0.78750  Biso   1.000  H
  C93      1.0000 0.86090  0.03000  0.99440  Biso   1.000  C
  O22      1.0000 0.83580  0.19350  0.84190  Biso   1.000  O
  C94      1.0000 0.85730  0.30970  0.49410  Biso   1.000  C
  N15      1.0000 0.86340  0.98420  0.31590  Biso   1.000  N
  C95      1.0000 0.55260  0.11890  0.89720  Biso   1.000  C
  C96      1.0000 0.85250  0.07690  0.86280  Biso   1.000  C
  N16      1.0000 0.92780  0.83830  0.89680  Biso   1.000  N
  C97      1.0000 0.56050  0.11480  0.81760  Biso   1.000  C
  H85      1.0000 0.56250  0.15320  0.78790  Biso   1.000  H
  O23      1.0000 0.65790  0.85020  0.89420  Biso   1.000  O
  C98      1.0000 0.88920  0.92400  0.30100  Biso   1.000  C
  H86      1.0000 0.90710  0.91720  0.25440  Biso   1.000  H
  C99      1.0000 0.88790  0.96800  0.97160  Biso   1.000  C
  H87      1.0000 0.89870  0.93180  0.00750  Biso   1.000  H
  C100     1.0000 0.55300  0.06080  0.93850  Biso   1.000  C
  H88      1.0000 0.55030  0.06200  0.99150  Biso   1.000  H
  C101     1.0000 0.85680  0.82160  0.47770  Biso   1.000  C
  H89      1.0000 0.89250  0.83500  0.53490  Biso   1.000  H
  H90      1.0000 0.89390  0.78310  0.46720  Biso   1.000  H
  C102     1.0000 0.87380  0.46980  0.84250  Biso   1.000  C
  H91      1.0000 0.88800  0.51150  0.82500  Biso   1.000  H
  C103     1.0000 0.53790  0.18500  0.93330  Biso   1.000  C
  H92      1.0000 0.56450  0.22050  0.90760  Biso   1.000  H
  H93      1.0000 0.57900  0.18530  0.99210  Biso   1.000  H
  C104     1.0000 0.83320  0.40050  0.94010  Biso   1.000  C
  H94      1.0000 0.81880  0.39470  0.98850  Biso   1.000  H
  C105     1.0000 0.87600  0.41330  0.79810  Biso   1.000  C
  H95      1.0000 0.89000  0.41800  0.74940  Biso   1.000  H
  C106     1.0000 0.73950  0.80180  0.46440  Biso   1.000  C
  H96      1.0000 0.73850  0.77340  0.50970  Biso   1.000  H
  H97      1.0000 0.69890  0.84180  0.46460  Biso   1.000  H
  C107     1.0000 0.83870  0.34530  0.89150  Biso   1.000  C
  H98      1.0000 0.82770  0.30290  0.90910  Biso   1.000  H
  C108     1.0000 0.83770  0.13670  0.80820  Biso   1.000  C
  C109     1.0000 0.87190  0.37100  0.46060  Biso   1.000  C
  H99      1.0000 0.87150  0.41030  0.48930  Biso   1.000  H
  N17      1.0000 0.49700  0.78420  0.69820  Biso   1.000  N
  C110     1.0000 0.84140  0.52550  0.96380  Biso   1.000  C
  H100     1.0000 0.88060  0.51770  0.02210  Biso   1.000  H
  H101     1.0000 0.87400  0.56320  0.94660  Biso   1.000  H
  C111     1.0000 0.83500  0.74070  0.91240  Biso   1.000  C
  H102     1.0000 0.81010  0.72010  0.95310  Biso   1.000  H
  H103     1.0000 0.78970  0.72680  0.85740  Biso   1.000  H
  C112     1.0000 0.84990  0.46380  0.91460  Biso   1.000  C
  C113     1.0000 0.66390  0.56910  0.86630  Biso   1.000  C
  H104     1.0000 0.68990  0.61310  0.85940  Biso   1.000  H
  H105     1.0000 0.67450  0.53970  0.82510  Biso   1.000  H
  C114     1.0000 0.38280  0.46230  0.45590  Biso   1.000  C
  H106     1.0000 0.32090  0.47840  0.46150  Biso   1.000  H
  C115     1.0000 0.42000  0.19870  0.92000  Biso   1.000  C
  H107     1.0000 0.39160  0.16140  0.94140  Biso   1.000  H
  H108     1.0000 0.41520  0.23840  0.95080  Biso   1.000  H
  N18      1.0000 0.47240  0.42590  0.36670  Biso   1.000  N
  C116     1.0000 0.83880  0.81860  0.92070  Biso   1.000  C
  H109     1.0000 0.85270  0.83130  0.97840  Biso   1.000  H
  C117     1.0000 0.86170  0.87800  0.42160  Biso   1.000  C
  C118     1.0000 0.38570  0.44810  0.37700  Biso   1.000  C
  H110     1.0000 0.32470  0.45460  0.33080  Biso   1.000  H
  O24      1.0000 0.01140  0.90530  0.83460  Biso   1.000  O
  C119     1.0000 0.38410  0.63380  0.82620  Biso   1.000  C
  H111     1.0000 0.34970  0.67470  0.82220  Biso   1.000  H
  C120     1.0000 0.56500  0.05280  0.78610  Biso   1.000  C
  H112     1.0000 0.57070  0.05050  0.73400  Biso   1.000  H
  C121     1.0000 0.89120  0.86800  0.35270  Biso   1.000  C
  H113     1.0000 0.91160  0.82600  0.34090  Biso   1.000  H
  C122     1.0000 0.40620  0.75100  0.68240  Biso   1.000  C
  H114     1.0000 0.35450  0.76980  0.70000  Biso   1.000  H
  C123     1.0000 0.39650  0.79980  0.27040  Biso   1.000  C
  H115     1.0000 0.35540  0.82340  0.22360  Biso   1.000  H
  C124     1.0000 0.43660  0.59430  0.57340  Biso   1.000  C
  H116     1.0000 0.45180  0.59560  0.52260  Biso   1.000  H
  H117     1.0000 0.36260  0.58210  0.55990  Biso   1.000  H
  C125     1.0000 0.83370  0.94120  0.43490  Biso   1.000  C
  H118     1.0000 0.81410  0.94940  0.48050  Biso   1.000  H
  C126     1.0000 0.38400  0.69030  0.64140  Biso   1.000  C
  H119     1.0000 0.31910  0.66940  0.63200  Biso   1.000  H
  C127     1.0000 0.83350  0.99310  0.38300  Biso   1.000  C
  H120     1.0000 0.81260  0.03540  0.39370  Biso   1.000  H
  C128     1.0000 0.37790  0.52080  0.82250  Biso   1.000  C
  H121     1.0000 0.33900  0.48150  0.81740  Biso   1.000  H
  C129     1.0000 0.45760  0.66140  0.61490  Biso   1.000  C
  C130     1.0000 0.84030  0.30540  0.57520  Biso   1.000  C
  C131     1.0000 0.73160  0.84640  0.86540  Biso   1.000  C
  C132     1.0000 0.98900  0.78050  0.88550  Biso   1.000  C
  H122     1.0000 0.06480  0.78830  0.91120  Biso   1.000  H
  H123     1.0000 0.97230  0.77080  0.82720  Biso   1.000  H
  C133     1.0000 0.56760  0.75520  0.67050  Biso   1.000  C
  H124     1.0000 0.63160  0.77710  0.67900  Biso   1.000  H
  C134     1.0000 0.47070  0.45220  0.52360  Biso   1.000  C
  C135     1.0000 0.55750  0.99860  0.90080  Biso   1.000  C
  H125     1.0000 0.55750  0.95940  0.92970  Biso   1.000  H
  C136     1.0000 0.54710  0.57340  0.85170  Biso   1.000  C
  C137     1.0000 0.48450  0.51580  0.83970  Biso   1.000  C
  H126     1.0000 0.51580  0.47390  0.84360  Biso   1.000  H
  C138     1.0000 0.56820  0.76350  0.35720  Biso   1.000  C
  C139     1.0000 0.49300  0.63480  0.84590  Biso   1.000  C
  H127     1.0000 0.53000  0.67510  0.85520  Biso   1.000  H
  C140     1.0000 0.35410  0.20870  0.82990  Biso   1.000  C
  H128     1.0000 0.36340  0.17000  0.79930  Biso   1.000  H
  H129     1.0000 0.38150  0.24730  0.80980  Biso   1.000  H
  C141     1.0000 0.85550  0.04080  0.07950  Biso   1.000  C
  C142     1.0000 0.16190  0.19440  0.73840  Biso   1.000  C
  H130     1.0000 0.18490  0.17010  0.70200  Biso   1.000  H
  C143     1.0000 0.19840  0.25510  0.86180  Biso   1.000  C
  H131     1.0000 0.24460  0.27280  0.91120  Biso   1.000  H
  C144     1.0000 0.47300  0.46940  0.60970  Biso   1.000  C
  H132     1.0000 0.52100  0.43910  0.64950  Biso   1.000  H
  H133     1.0000 0.40250  0.46320  0.61190  Biso   1.000  H
  C145     1.0000 0.88700  0.37420  0.38520  Biso   1.000  C
  C146     1.0000 0.08820  0.26460  0.83800  Biso   1.000  C
  H134     1.0000 0.06280  0.28840  0.87330  Biso   1.000  H
  N19      1.0000 0.86140  0.46050  0.27940  Biso   1.000  N
  C147     1.0000 0.67460  0.41430  0.23830  Biso   1.000  C
  C148     1.0000 0.68760  0.76470  0.38240  Biso   1.000  C
  H135     1.0000 0.70680  0.78640  0.33950  Biso   1.000  H
  H136     1.0000 0.71420  0.71910  0.38800  Biso   1.000  H
  C149     1.0000 0.50940  0.54250  0.63410  Biso   1.000  C
  H137     1.0000 0.58150  0.54790  0.63520  Biso   1.000  H
  H138     1.0000 0.50970  0.55120  0.68950  Biso   1.000  H
  C150     1.0000 0.95250  0.72330  0.92900  Biso   1.000  C
  H139     1.0000 0.99340  0.72260  0.98790  Biso   1.000  H
  H140     1.0000 0.95900  0.68020  0.90540  Biso   1.000  H
  C151     1.0000 0.56180  0.42680  0.51260  Biso   1.000  C
  H141     1.0000 0.62250  0.41720  0.55800  Biso   1.000  H
  C152     1.0000 0.72750  0.54290  0.95210  Biso   1.000  C
  H142     1.0000 0.72750  0.57650  0.99260  Biso   1.000  H
  H143     1.0000 0.69260  0.50340  0.96270  Biso   1.000  H
  O25      1.0000 0.87140  0.19590  0.25490  Biso   1.000  O
  O26      1.0000 0.88790  0.13670  0.36560  Biso   1.000  O
  N20      1.0000 0.85860  0.35060  0.82170  Biso   1.000  N
  O27      1.0000 0.04670  0.07820  0.27080  Biso   1.000  O
  H144     1.0000 0.07500  0.08860  0.31960  Biso   1.000  H
  O28      1.0000 0.85520  0.99050  0.12380  Biso   1.000  O
  O29      1.0000 0.85380  0.10000  0.10190  Biso   1.000  O
  O30      1.0000 0.71930  0.86300  0.79090  Biso   1.000  O
  O31      1.0000 0.98710  0.47770  0.40030  Biso   1.000  O
  C153     1.0000 0.74530  0.47270  0.14070  Biso   1.000  C
  H145     1.0000 0.78160  0.45850  0.10400  Biso   1.000  H
  H146     1.0000 0.66950  0.47350  0.10990  Biso   1.000  H
  C154     1.0000 0.87900  0.52720  0.24990  Biso   1.000  C
  H147     1.0000 0.94260  0.52760  0.23570  Biso   1.000  H
  H148     1.0000 0.88570  0.56110  0.29160  Biso   1.000  H
  C155     1.0000 0.40770  0.72950  0.37620  Biso   1.000  C
  H149     1.0000 0.37470  0.70530  0.40630  Biso   1.000  H
  C156     1.0000 0.90960  0.44120  0.35680  Biso   1.000  C
  C157     1.0000 0.55930  0.41620  0.43250  Biso   1.000  C
  H150     1.0000 0.62080  0.40180  0.42480  Biso   1.000  H
  C158     1.0000 0.51630  0.72550  0.40010  Biso   1.000  C
  H151     1.0000 0.55510  0.69810  0.44390  Biso   1.000  H
  C159     1.0000 0.55030  0.69530  0.63040  Biso   1.000  C
  H152     1.0000 0.60270  0.67730  0.61330  Biso   1.000  H
  C160     1.0000 0.78290  0.53860  0.17560  Biso   1.000  C
  H153     1.0000 0.79990  0.56600  0.13570  Biso   1.000  H
  H154     1.0000 0.72860  0.56130  0.19070  Biso   1.000  H
  O32      1.0000 0.92850  0.48610  0.42700  Biso   1.000  O
