data_image0
_cell_length_a       15.8454
_cell_length_b       20.9947
_cell_length_c       13.9809
_cell_angle_alpha    90
_cell_angle_beta     90
_cell_angle_gamma    90

_symmetry_space_group_name_H-M    "P 1"
_symmetry_int_tables_number       1

loop_
  _symmetry_equiv_pos_as_xyz
  'x, y, z'

loop_
  _atom_site_label
  _atom_site_occupancy
  _atom_site_fract_x
  _atom_site_fract_y
  _atom_site_fract_z
  _atom_site_thermal_displace_type
  _atom_site_B_iso_or_equiv
  _atom_site_type_symbol
  Cd1      1.0000 0.25303  0.08997  0.60111  Biso   1.000  Cd
  N1       1.0000 0.26640  0.08640  0.43430  Biso   1.000  N
  C1       1.0000 0.26000  0.02767  0.38910  Biso   1.000  C
  H1       1.0000 0.25700  0.99060  0.42520  Biso   1.000  H
  C2       1.0000 0.25820  0.02440  0.28980  Biso   1.000  C
  H2       1.0000 0.25390  0.98510  0.25950  Biso   1.000  H
  C3       1.0000 0.26270  0.07980  0.23580  Biso   1.000  C
  C4       1.0000 0.26910  0.13860  0.28100  Biso   1.000  C
  H3       1.0000 0.27210  0.17570  0.24480  Biso   1.000  H
  C5       1.0000 0.27100  0.14190  0.38030  Biso   1.000  C
  H4       1.0000 0.27530  0.18120  0.41050  Biso   1.000  H
  N2       1.0000 0.24790  0.10150  0.76650  Biso   1.000  N
  O1       1.0000 0.35560  0.99600  0.59210  Biso   1.000  O
  O2       1.0000 0.22050  0.98230  0.62040  Biso   1.000  O
  C6       1.0000 0.29360  0.96030  0.60980  Biso   1.000  C
  O3       1.0000 0.12330  0.63980  0.37490  Biso   1.000  O
  O4       1.0000 0.82090  0.79570  0.57200  Biso   1.000  O
  O5       1.0000 0.88470  0.88770  0.58260  Biso   1.000  O
  O6       1.0000 0.22220  0.88120  0.44770  Biso   1.000  O
  O7       1.0000 0.00010  0.61026  0.43650  Biso   1.000  O
  N3       1.0000 0.23210  0.85440  0.60250  Biso   1.000  N
  C7       1.0000 0.04850  0.71610  0.46480  Biso   1.000  C
  C8       1.0000 0.25020  0.11140  0.96490  Biso   1.000  C
  C9       1.0000 0.26430  0.15330  0.80910  Biso   1.000  C
  H5       1.0000 0.27610  0.18880  0.77150  Biso   1.000  H
  C10      1.0000 0.96540  0.80080  0.53540  Biso   1.000  C
  C11      1.0000 0.05720  0.64890  0.42190  Biso   1.000  C
  C12      1.0000 0.53040  0.05130  0.36650  Biso   1.000  C
  H6       1.0000 0.54930  0.08710  0.39930  Biso   1.000  H
  C13      1.0000 0.23370  0.05220  0.82510  Biso   1.000  C
  H7       1.0000 0.22600  0.01210  0.79820  Biso   1.000  H
  C14      1.0000 0.26610  0.16120  0.90830  Biso   1.000  C
  H8       1.0000 0.27820  0.20080  0.93470  Biso   1.000  H
  C15      1.0000 0.25680  0.11770  0.07200  Biso   1.000  C
  H9       1.0000 0.25800  0.15930  0.09480  Biso   1.000  H
  C16      1.0000 0.11970  0.75530  0.46890  Biso   1.000  C
  H10      1.0000 0.17110  0.74060  0.44540  Biso   1.000  H
  C17      1.0000 0.97270  0.73890  0.50020  Biso   1.000  C
  H11      1.0000 0.92560  0.71240  0.50050  Biso   1.000  H
  C18      1.0000 0.46440  0.04670  0.79270  Biso   1.000  C
  H12      1.0000 0.43780  0.07940  0.75960  Biso   1.000  H
  C19      1.0000 0.30870  0.88990  0.61650  Biso   1.000  C
  H13      1.0000 0.35140  0.87670  0.56990  Biso   1.000  H
  C20      1.0000 0.88510  0.82910  0.56700  Biso   1.000  C
  C21      1.0000 0.11470  0.81300  0.50590  Biso   1.000  C
  C22      1.0000 0.23010  0.05780  0.92160  Biso   1.000  C
  H14      1.0000 0.21300  0.02300  0.95800  Biso   1.000  H
  C23      1.0000 0.19440  0.85260  0.51390  Biso   1.000  C
  C24      1.0000 0.26080  0.07770  0.13160  Biso   1.000  C
  H15      1.0000 0.26310  0.03660  0.10680  Biso   1.000  H
  C25      1.0000 0.04060  0.83700  0.53800  Biso   1.000  C
  H16      1.0000 0.03910  0.87820  0.56220  Biso   1.000  H
  C26      1.0000 0.46650  0.04690  0.89070  Biso   1.000  C
  H17      1.0000 0.44320  0.08160  0.92240  Biso   1.000  H
  C27      1.0000 0.53240  0.04870  0.26230  Biso   1.000  C
  C28      1.0000 0.20390  0.81880  0.69230  Biso   1.000  C
  H18      1.0000 0.15820  0.84100  0.72400  Biso   1.000  H
  H19      1.0000 0.18570  0.77590  0.67690  Biso   1.000  H
  C29      1.0000 0.33550  0.87090  0.71680  Biso   1.000  C
  H20      1.0000 0.39400  0.85730  0.71600  Biso   1.000  H
  H21      1.0000 0.33080  0.90730  0.75920  Biso   1.000  H
  C30      1.0000 0.28110  0.81780  0.75300  Biso   1.000  C
  H22      1.0000 0.31000  0.77730  0.74730  Biso   1.000  H
  H23      1.0000 0.26660  0.82460  0.81970  Biso   1.000  H
  C31      1.0000 0.51900  0.97200  0.13300  Biso   1.000  C
  C32      1.0000 0.50300  0.03100  0.07200  Biso   1.000  C
  Cd2      1.0000 0.74697  0.91004  0.60111  Biso   1.000  Cd
  N4       1.0000 0.73360  0.91360  0.43430  Biso   1.000  N
  C33      1.0000 0.74000  0.97233  0.38910  Biso   1.000  C
  H24      1.0000 0.74300  0.00940  0.42520  Biso   1.000  H
  C34      1.0000 0.74180  0.97560  0.28980  Biso   1.000  C
  H25      1.0000 0.74610  0.01490  0.25950  Biso   1.000  H
  C35      1.0000 0.73730  0.92020  0.23580  Biso   1.000  C
  C36      1.0000 0.73090  0.86140  0.28100  Biso   1.000  C
  H26      1.0000 0.72790  0.82430  0.24480  Biso   1.000  H
  C37      1.0000 0.72900  0.85810  0.38030  Biso   1.000  C
  H27      1.0000 0.72470  0.81880  0.41050  Biso   1.000  H
  N5       1.0000 0.75210  0.89850  0.76650  Biso   1.000  N
  O8       1.0000 0.64440  0.00400  0.59210  Biso   1.000  O
  O9       1.0000 0.77950  0.01770  0.62040  Biso   1.000  O
  C38      1.0000 0.70640  0.03970  0.60980  Biso   1.000  C
  O10      1.0000 0.87670  0.36020  0.37490  Biso   1.000  O
  O11      1.0000 0.17910  0.20430  0.57200  Biso   1.000  O
  O12      1.0000 0.11530  0.11230  0.58260  Biso   1.000  O
  O13      1.0000 0.77780  0.11880  0.44770  Biso   1.000  O
  O14      1.0000 0.99990  0.38974  0.43650  Biso   1.000  O
  N6       1.0000 0.76790  0.14560  0.60250  Biso   1.000  N
  C39      1.0000 0.95150  0.28390  0.46480  Biso   1.000  C
  C40      1.0000 0.74980  0.88860  0.96490  Biso   1.000  C
  C41      1.0000 0.73570  0.84670  0.80910  Biso   1.000  C
  H28      1.0000 0.72390  0.81120  0.77150  Biso   1.000  H
  C42      1.0000 0.03460  0.19920  0.53540  Biso   1.000  C
  C43      1.0000 0.94280  0.35110  0.42190  Biso   1.000  C
  C44      1.0000 0.46960  0.94870  0.36650  Biso   1.000  C
  H29      1.0000 0.45070  0.91290  0.39930  Biso   1.000  H
  C45      1.0000 0.76630  0.94780  0.82510  Biso   1.000  C
  H30      1.0000 0.77400  0.98790  0.79820  Biso   1.000  H
  C46      1.0000 0.73390  0.83880  0.90830  Biso   1.000  C
  H31      1.0000 0.72180  0.79920  0.93470  Biso   1.000  H
  C47      1.0000 0.74320  0.88230  0.07200  Biso   1.000  C
  H32      1.0000 0.74200  0.84070  0.09480  Biso   1.000  H
  C48      1.0000 0.88030  0.24470  0.46890  Biso   1.000  C
  H33      1.0000 0.82890  0.25940  0.44540  Biso   1.000  H
  C49      1.0000 0.02730  0.26110  0.50020  Biso   1.000  C
  H34      1.0000 0.07440  0.28760  0.50050  Biso   1.000  H
  C50      1.0000 0.53560  0.95330  0.79270  Biso   1.000  C
  H35      1.0000 0.56220  0.92060  0.75960  Biso   1.000  H
  C51      1.0000 0.69130  0.11010  0.61650  Biso   1.000  C
  H36      1.0000 0.64860  0.12330  0.56990  Biso   1.000  H
  C52      1.0000 0.11490  0.17090  0.56700  Biso   1.000  C
  C53      1.0000 0.88530  0.18700  0.50590  Biso   1.000  C
  C54      1.0000 0.76990  0.94220  0.92160  Biso   1.000  C
  H37      1.0000 0.78700  0.97700  0.95800  Biso   1.000  H
  C55      1.0000 0.80560  0.14740  0.51390  Biso   1.000  C
  C56      1.0000 0.73920  0.92230  0.13160  Biso   1.000  C
  H38      1.0000 0.73690  0.96340  0.10680  Biso   1.000  H
  C57      1.0000 0.95940  0.16300  0.53800  Biso   1.000  C
  H39      1.0000 0.96090  0.12180  0.56220  Biso   1.000  H
  C58      1.0000 0.53350  0.95310  0.89070  Biso   1.000  C
  H40      1.0000 0.55680  0.91840  0.92240  Biso   1.000  H
  C59      1.0000 0.46760  0.95130  0.26230  Biso   1.000  C
  C60      1.0000 0.79610  0.18120  0.69230  Biso   1.000  C
  H41      1.0000 0.84180  0.15900  0.72400  Biso   1.000  H
  H42      1.0000 0.81430  0.22410  0.67690  Biso   1.000  H
  C61      1.0000 0.66450  0.12910  0.71680  Biso   1.000  C
  H43      1.0000 0.60600  0.14270  0.71600  Biso   1.000  H
  H44      1.0000 0.66920  0.09270  0.75920  Biso   1.000  H
  C62      1.0000 0.71890  0.18220  0.75300  Biso   1.000  C
  H45      1.0000 0.69000  0.22270  0.74730  Biso   1.000  H
  H46      1.0000 0.73340  0.17540  0.81970  Biso   1.000  H
  C63      1.0000 0.48100  0.02800  0.13300  Biso   1.000  C
  C64      1.0000 0.49700  0.96900  0.07200  Biso   1.000  C
  Cd3      1.0000 0.24697  0.58997  0.39889  Biso   1.000  Cd
  N7       1.0000 0.23360  0.58640  0.56570  Biso   1.000  N
  C65      1.0000 0.24000  0.52767  0.61090  Biso   1.000  C
  H47      1.0000 0.24300  0.49060  0.57480  Biso   1.000  H
  C66      1.0000 0.24180  0.52440  0.71020  Biso   1.000  C
  H48      1.0000 0.24610  0.48510  0.74050  Biso   1.000  H
  C67      1.0000 0.23730  0.57980  0.76420  Biso   1.000  C
  C68      1.0000 0.23090  0.63860  0.71900  Biso   1.000  C
  H49      1.0000 0.22790  0.67570  0.75520  Biso   1.000  H
  C69      1.0000 0.22900  0.64190  0.61970  Biso   1.000  C
  H50      1.0000 0.22470  0.68120  0.58950  Biso   1.000  H
  N8       1.0000 0.25210  0.60150  0.23350  Biso   1.000  N
  O15      1.0000 0.14440  0.49600  0.40790  Biso   1.000  O
  O16      1.0000 0.27950  0.48230  0.37960  Biso   1.000  O
  C70      1.0000 0.20640  0.46030  0.39020  Biso   1.000  C
  O17      1.0000 0.37670  0.13980  0.62510  Biso   1.000  O
  O18      1.0000 0.67910  0.29570  0.42800  Biso   1.000  O
  O19      1.0000 0.61530  0.38770  0.41740  Biso   1.000  O
  O20      1.0000 0.27780  0.38120  0.55230  Biso   1.000  O
  O21      1.0000 0.49990  0.11026  0.56350  Biso   1.000  O
  N9       1.0000 0.26790  0.35440  0.39750  Biso   1.000  N
  C71      1.0000 0.45150  0.21610  0.53520  Biso   1.000  C
  C72      1.0000 0.24980  0.61140  0.03510  Biso   1.000  C
  C73      1.0000 0.23570  0.65330  0.19090  Biso   1.000  C
  H51      1.0000 0.22390  0.68880  0.22850  Biso   1.000  H
  C74      1.0000 0.53460  0.30080  0.46460  Biso   1.000  C
  C75      1.0000 0.44280  0.14890  0.57810  Biso   1.000  C
  C76      1.0000 0.96960  0.55130  0.63350  Biso   1.000  C
  H52      1.0000 0.95070  0.58710  0.60070  Biso   1.000  H
  C77      1.0000 0.26630  0.55220  0.17490  Biso   1.000  C
  H53      1.0000 0.27400  0.51210  0.20180  Biso   1.000  H
  C78      1.0000 0.23390  0.66120  0.09170  Biso   1.000  C
  H54      1.0000 0.22180  0.70080  0.06530  Biso   1.000  H
  C79      1.0000 0.24320  0.61770  0.92800  Biso   1.000  C
  H55      1.0000 0.24200  0.65930  0.90520  Biso   1.000  H
  C80      1.0000 0.38030  0.25530  0.53110  Biso   1.000  C
  H56      1.0000 0.32890  0.24060  0.55460  Biso   1.000  H
  C81      1.0000 0.52730  0.23890  0.49980  Biso   1.000  C
  H57      1.0000 0.57440  0.21240  0.49950  Biso   1.000  H
  C82      1.0000 0.03560  0.54670  0.20730  Biso   1.000  C
  H58      1.0000 0.06220  0.57940  0.24040  Biso   1.000  H
  C83      1.0000 0.19130  0.38990  0.38350  Biso   1.000  C
  H59      1.0000 0.14860  0.37670  0.43010  Biso   1.000  H
  C84      1.0000 0.61490  0.32910  0.43300  Biso   1.000  C
  C85      1.0000 0.38530  0.31300  0.49410  Biso   1.000  C
  C86      1.0000 0.26990  0.55780  0.07840  Biso   1.000  C
  H60      1.0000 0.28700  0.52300  0.04200  Biso   1.000  H
  C87      1.0000 0.30560  0.35260  0.48610  Biso   1.000  C
  C88      1.0000 0.23920  0.57770  0.86840  Biso   1.000  C
  H61      1.0000 0.23690  0.53660  0.89320  Biso   1.000  H
  C89      1.0000 0.45940  0.33700  0.46200  Biso   1.000  C
  H62      1.0000 0.46090  0.37820  0.43780  Biso   1.000  H
  C90      1.0000 0.03350  0.54690  0.10930  Biso   1.000  C
  H63      1.0000 0.05680  0.58160  0.07760  Biso   1.000  H
  C91      1.0000 0.96760  0.54870  0.73770  Biso   1.000  C
  C92      1.0000 0.29610  0.31880  0.30770  Biso   1.000  C
  H64      1.0000 0.34180  0.34100  0.27600  Biso   1.000  H
  H65      1.0000 0.31430  0.27590  0.32310  Biso   1.000  H
  C93      1.0000 0.16450  0.37090  0.28320  Biso   1.000  C
  H66      1.0000 0.10600  0.35730  0.28400  Biso   1.000  H
  H67      1.0000 0.16920  0.40730  0.24080  Biso   1.000  H
  C94      1.0000 0.21890  0.31780  0.24700  Biso   1.000  C
  H68      1.0000 0.19000  0.27730  0.25270  Biso   1.000  H
  H69      1.0000 0.23340  0.32460  0.18030  Biso   1.000  H
  C95      1.0000 0.98100  0.47200  0.86700  Biso   1.000  C
  C96      1.0000 0.99700  0.53100  0.92800  Biso   1.000  C
  Cd4      1.0000 0.75303  0.41003  0.39889  Biso   1.000  Cd
  N10      1.0000 0.76640  0.41360  0.56570  Biso   1.000  N
  C97      1.0000 0.76000  0.47233  0.61090  Biso   1.000  C
  H70      1.0000 0.75700  0.50940  0.57480  Biso   1.000  H
  C98      1.0000 0.75820  0.47560  0.71020  Biso   1.000  C
  H71      1.0000 0.75390  0.51490  0.74050  Biso   1.000  H
  C99      1.0000 0.76270  0.42020  0.76420  Biso   1.000  C
  C100     1.0000 0.76910  0.36140  0.71900  Biso   1.000  C
  H72      1.0000 0.77210  0.32430  0.75520  Biso   1.000  H
  C101     1.0000 0.77100  0.35810  0.61970  Biso   1.000  C
  H73      1.0000 0.77530  0.31880  0.58950  Biso   1.000  H
  N11      1.0000 0.74790  0.39850  0.23350  Biso   1.000  N
  O22      1.0000 0.85560  0.50400  0.40790  Biso   1.000  O
  O23      1.0000 0.72050  0.51770  0.37960  Biso   1.000  O
  C102     1.0000 0.79360  0.53970  0.39020  Biso   1.000  C
  O24      1.0000 0.62330  0.86020  0.62510  Biso   1.000  O
  O25      1.0000 0.32090  0.70430  0.42800  Biso   1.000  O
  O26      1.0000 0.38470  0.61230  0.41740  Biso   1.000  O
  O27      1.0000 0.72220  0.61880  0.55230  Biso   1.000  O
  O28      1.0000 0.50010  0.88974  0.56350  Biso   1.000  O
  N12      1.0000 0.73210  0.64560  0.39750  Biso   1.000  N
  C103     1.0000 0.54850  0.78390  0.53520  Biso   1.000  C
  C104     1.0000 0.75020  0.38860  0.03510  Biso   1.000  C
  C105     1.0000 0.76430  0.34670  0.19090  Biso   1.000  C
  H74      1.0000 0.77610  0.31120  0.22850  Biso   1.000  H
  C106     1.0000 0.46540  0.69920  0.46460  Biso   1.000  C
  C107     1.0000 0.55720  0.85110  0.57810  Biso   1.000  C
  C108     1.0000 0.03040  0.44870  0.63350  Biso   1.000  C
  H75      1.0000 0.04930  0.41290  0.60070  Biso   1.000  H
  C109     1.0000 0.73370  0.44780  0.17490  Biso   1.000  C
  H76      1.0000 0.72600  0.48790  0.20180  Biso   1.000  H
  C110     1.0000 0.76610  0.33880  0.09170  Biso   1.000  C
  H77      1.0000 0.77820  0.29920  0.06530  Biso   1.000  H
  C111     1.0000 0.75680  0.38230  0.92800  Biso   1.000  C
  H78      1.0000 0.75800  0.34070  0.90520  Biso   1.000  H
  C112     1.0000 0.61970  0.74470  0.53110  Biso   1.000  C
  H79      1.0000 0.67110  0.75940  0.55460  Biso   1.000  H
  C113     1.0000 0.47270  0.76110  0.49980  Biso   1.000  C
  H80      1.0000 0.42560  0.78760  0.49950  Biso   1.000  H
  C114     1.0000 0.96440  0.45330  0.20730  Biso   1.000  C
  H81      1.0000 0.93780  0.42060  0.24040  Biso   1.000  H
  C115     1.0000 0.80870  0.61010  0.38350  Biso   1.000  C
  H82      1.0000 0.85140  0.62330  0.43010  Biso   1.000  H
  C116     1.0000 0.38510  0.67090  0.43300  Biso   1.000  C
  C117     1.0000 0.61470  0.68700  0.49410  Biso   1.000  C
  C118     1.0000 0.73010  0.44220  0.07840  Biso   1.000  C
  H83      1.0000 0.71300  0.47700  0.04200  Biso   1.000  H
  C119     1.0000 0.69440  0.64740  0.48610  Biso   1.000  C
  C120     1.0000 0.76080  0.42230  0.86840  Biso   1.000  C
  H84      1.0000 0.76310  0.46340  0.89320  Biso   1.000  H
  C121     1.0000 0.54060  0.66300  0.46200  Biso   1.000  C
  H85      1.0000 0.53910  0.62180  0.43780  Biso   1.000  H
  C122     1.0000 0.96650  0.45310  0.10930  Biso   1.000  C
  H86      1.0000 0.94320  0.41840  0.07760  Biso   1.000  H
  C123     1.0000 0.03240  0.45130  0.73770  Biso   1.000  C
  C124     1.0000 0.70390  0.68120  0.30770  Biso   1.000  C
  H87      1.0000 0.65820  0.65900  0.27600  Biso   1.000  H
  H88      1.0000 0.68570  0.72410  0.32310  Biso   1.000  H
  C125     1.0000 0.83550  0.62910  0.28320  Biso   1.000  C
  H89      1.0000 0.89400  0.64270  0.28400  Biso   1.000  H
  H90      1.0000 0.83080  0.59270  0.24080  Biso   1.000  H
  C126     1.0000 0.78110  0.68220  0.24700  Biso   1.000  C
  H91      1.0000 0.81000  0.72270  0.25270  Biso   1.000  H
  H92      1.0000 0.76660  0.67540  0.18030  Biso   1.000  H
  C127     1.0000 0.01900  0.52800  0.86700  Biso   1.000  C
  C128     1.0000 0.00300  0.46900  0.92800  Biso   1.000  C
  Cd5      1.0000 0.50000  0.00000  0.58015  Biso   1.000  Cd
  N13      1.0000 0.50000  0.00000  0.74660  Biso   1.000  N
  N14      1.0000 0.50000  0.00000  0.41380  Biso   1.000  N
  C129     1.0000 0.50000  0.00000  0.94380  Biso   1.000  C
  C130     1.0000 0.50000  0.00000  0.21340  Biso   1.000  C
  Cd6      1.0000 0.00000  0.50000  0.41985  Biso   1.000  Cd
  N15      1.0000 0.00000  0.50000  0.25340  Biso   1.000  N
  N16      1.0000 0.00000  0.50000  0.58620  Biso   1.000  N
  C131     1.0000 0.00000  0.50000  0.05620  Biso   1.000  C
  C132     1.0000 0.00000  0.50000  0.78660  Biso   1.000  C
