data_image0
_cell_length_a       15.336
_cell_length_b       15.336
_cell_length_c       19.081
_cell_angle_alpha    90
_cell_angle_beta     90
_cell_angle_gamma    90

_symmetry_space_group_name_H-M    "P 1"
_symmetry_int_tables_number       1

loop_
  _symmetry_equiv_pos_as_xyz
  'x, y, z'

loop_
  _atom_site_label
  _atom_site_occupancy
  _atom_site_fract_x
  _atom_site_fract_y
  _atom_site_fract_z
  _atom_site_thermal_displace_type
  _atom_site_B_iso_or_equiv
  _atom_site_type_symbol
  O1       1.0000 0.10470  0.07740  0.19350  Biso   1.000  O
  C1       1.0000 0.26440  0.16970  0.28380  Biso   1.000  C
  C2       1.0000 0.28190  0.08830  0.31700  Biso   1.000  C
  C3       1.0000 0.36080  0.07430  0.34640  Biso   1.000  C
  C4       1.0000 0.95500  0.92000  0.04300  Biso   1.000  C
  C5       1.0000 0.02700  0.91020  0.03960  Biso   1.000  C
  H1       1.0000 0.23890  0.04470  0.31840  Biso   1.000  H
  H2       1.0000 0.37260  0.02000  0.36730  Biso   1.000  H
  O2       1.0000 0.60470  0.57740  0.69350  Biso   1.000  O
  C6       1.0000 0.76440  0.66970  0.78380  Biso   1.000  C
  C7       1.0000 0.78190  0.58830  0.81700  Biso   1.000  C
  C8       1.0000 0.86080  0.57430  0.84640  Biso   1.000  C
  C9       1.0000 0.45500  0.42000  0.54300  Biso   1.000  C
  C10      1.0000 0.52700  0.41020  0.53960  Biso   1.000  C
  H3       1.0000 0.73890  0.54470  0.81840  Biso   1.000  H
  H4       1.0000 0.87260  0.52000  0.86730  Biso   1.000  H
  O3       1.0000 0.89530  0.92260  0.19350  Biso   1.000  O
  C11      1.0000 0.73560  0.83030  0.28380  Biso   1.000  C
  C12      1.0000 0.71810  0.91170  0.31700  Biso   1.000  C
  C13      1.0000 0.63920  0.92570  0.34640  Biso   1.000  C
  C14      1.0000 0.04500  0.08000  0.04300  Biso   1.000  C
  C15      1.0000 0.97300  0.08980  0.03960  Biso   1.000  C
  H5       1.0000 0.76110  0.95530  0.31840  Biso   1.000  H
  H6       1.0000 0.62740  0.98000  0.36730  Biso   1.000  H
  O4       1.0000 0.39530  0.42260  0.69350  Biso   1.000  O
  C16      1.0000 0.23560  0.33030  0.78380  Biso   1.000  C
  C17      1.0000 0.21810  0.41170  0.81700  Biso   1.000  C
  C18      1.0000 0.13920  0.42570  0.84640  Biso   1.000  C
  C19      1.0000 0.54500  0.58000  0.54300  Biso   1.000  C
  C20      1.0000 0.47300  0.58980  0.53960  Biso   1.000  C
  H7       1.0000 0.26110  0.45530  0.81840  Biso   1.000  H
  H8       1.0000 0.12740  0.48000  0.86730  Biso   1.000  H
  O5       1.0000 0.92260  0.10470  0.19350  Biso   1.000  O
  C21      1.0000 0.83030  0.26440  0.28380  Biso   1.000  C
  C22      1.0000 0.91170  0.28190  0.31700  Biso   1.000  C
  C23      1.0000 0.92570  0.36080  0.34640  Biso   1.000  C
  C24      1.0000 0.08000  0.95500  0.04300  Biso   1.000  C
  C25      1.0000 0.08980  0.02700  0.03960  Biso   1.000  C
  H9       1.0000 0.95530  0.23890  0.31840  Biso   1.000  H
  H10      1.0000 0.98000  0.37260  0.36730  Biso   1.000  H
  O6       1.0000 0.42260  0.60470  0.69350  Biso   1.000  O
  C26      1.0000 0.33030  0.76440  0.78380  Biso   1.000  C
  C27      1.0000 0.41170  0.78190  0.81700  Biso   1.000  C
  C28      1.0000 0.42570  0.86080  0.84640  Biso   1.000  C
  C29      1.0000 0.58000  0.45500  0.54300  Biso   1.000  C
  C30      1.0000 0.58980  0.52700  0.53960  Biso   1.000  C
  H11      1.0000 0.45530  0.73890  0.81840  Biso   1.000  H
  H12      1.0000 0.48000  0.87260  0.86730  Biso   1.000  H
  O7       1.0000 0.07740  0.89530  0.19350  Biso   1.000  O
  C31      1.0000 0.16970  0.73560  0.28380  Biso   1.000  C
  C32      1.0000 0.08830  0.71810  0.31700  Biso   1.000  C
  C33      1.0000 0.07430  0.63920  0.34640  Biso   1.000  C
  C34      1.0000 0.92000  0.04500  0.04300  Biso   1.000  C
  C35      1.0000 0.91020  0.97300  0.03960  Biso   1.000  C
  H13      1.0000 0.04470  0.76110  0.31840  Biso   1.000  H
  H14      1.0000 0.02000  0.62740  0.36730  Biso   1.000  H
  O8       1.0000 0.57740  0.39530  0.69350  Biso   1.000  O
  C36      1.0000 0.66970  0.23560  0.78380  Biso   1.000  C
  C37      1.0000 0.58830  0.21810  0.81700  Biso   1.000  C
  C38      1.0000 0.57430  0.13920  0.84640  Biso   1.000  C
  C39      1.0000 0.42000  0.54500  0.54300  Biso   1.000  C
  C40      1.0000 0.41020  0.47300  0.53960  Biso   1.000  C
  H15      1.0000 0.54470  0.26110  0.81840  Biso   1.000  H
  H16      1.0000 0.52000  0.12740  0.86730  Biso   1.000  H
  O9       1.0000 0.89530  0.07740  0.30650  Biso   1.000  O
  C41      1.0000 0.73560  0.16970  0.21620  Biso   1.000  C
  C42      1.0000 0.71810  0.08830  0.18300  Biso   1.000  C
  C43      1.0000 0.63920  0.07430  0.15360  Biso   1.000  C
  C44      1.0000 0.04500  0.92000  0.45700  Biso   1.000  C
  C45      1.0000 0.97300  0.91020  0.46040  Biso   1.000  C
  H17      1.0000 0.76110  0.04470  0.18160  Biso   1.000  H
  H18      1.0000 0.62740  0.02000  0.13270  Biso   1.000  H
  O10      1.0000 0.39530  0.57740  0.80650  Biso   1.000  O
  C46      1.0000 0.23560  0.66970  0.71620  Biso   1.000  C
  C47      1.0000 0.21810  0.58830  0.68300  Biso   1.000  C
  C48      1.0000 0.13920  0.57430  0.65360  Biso   1.000  C
  C49      1.0000 0.54500  0.42000  0.95700  Biso   1.000  C
  C50      1.0000 0.47300  0.41020  0.96040  Biso   1.000  C
  H19      1.0000 0.26110  0.54470  0.68160  Biso   1.000  H
  H20      1.0000 0.12740  0.52000  0.63270  Biso   1.000  H
  O11      1.0000 0.10470  0.92260  0.30650  Biso   1.000  O
  C51      1.0000 0.26440  0.83030  0.21620  Biso   1.000  C
  C52      1.0000 0.28190  0.91170  0.18300  Biso   1.000  C
  C53      1.0000 0.36080  0.92570  0.15360  Biso   1.000  C
  C54      1.0000 0.95500  0.08000  0.45700  Biso   1.000  C
  C55      1.0000 0.02700  0.08980  0.46040  Biso   1.000  C
  H21      1.0000 0.23890  0.95530  0.18160  Biso   1.000  H
  H22      1.0000 0.37260  0.98000  0.13270  Biso   1.000  H
  O12      1.0000 0.60470  0.42260  0.80650  Biso   1.000  O
  C56      1.0000 0.76440  0.33030  0.71620  Biso   1.000  C
  C57      1.0000 0.78190  0.41170  0.68300  Biso   1.000  C
  C58      1.0000 0.86080  0.42570  0.65360  Biso   1.000  C
  C59      1.0000 0.45500  0.58000  0.95700  Biso   1.000  C
  C60      1.0000 0.52700  0.58980  0.96040  Biso   1.000  C
  H23      1.0000 0.73890  0.45530  0.68160  Biso   1.000  H
  H24      1.0000 0.87260  0.48000  0.63270  Biso   1.000  H
  O13      1.0000 0.07740  0.10470  0.30650  Biso   1.000  O
  C61      1.0000 0.16970  0.26440  0.21620  Biso   1.000  C
  C62      1.0000 0.08830  0.28190  0.18300  Biso   1.000  C
  C63      1.0000 0.07430  0.36080  0.15360  Biso   1.000  C
  C64      1.0000 0.92000  0.95500  0.45700  Biso   1.000  C
  C65      1.0000 0.91020  0.02700  0.46040  Biso   1.000  C
  H25      1.0000 0.04470  0.23890  0.18160  Biso   1.000  H
  H26      1.0000 0.02000  0.37260  0.13270  Biso   1.000  H
  O14      1.0000 0.57740  0.60470  0.80650  Biso   1.000  O
  C66      1.0000 0.66970  0.76440  0.71620  Biso   1.000  C
  C67      1.0000 0.58830  0.78190  0.68300  Biso   1.000  C
  C68      1.0000 0.57430  0.86080  0.65360  Biso   1.000  C
  C69      1.0000 0.42000  0.45500  0.95700  Biso   1.000  C
  C70      1.0000 0.41020  0.52700  0.96040  Biso   1.000  C
  H27      1.0000 0.54470  0.73890  0.68160  Biso   1.000  H
  H28      1.0000 0.52000  0.87260  0.63270  Biso   1.000  H
  O15      1.0000 0.92260  0.89530  0.30650  Biso   1.000  O
  C71      1.0000 0.83030  0.73560  0.21620  Biso   1.000  C
  C72      1.0000 0.91170  0.71810  0.18300  Biso   1.000  C
  C73      1.0000 0.92570  0.63920  0.15360  Biso   1.000  C
  C74      1.0000 0.08000  0.04500  0.45700  Biso   1.000  C
  C75      1.0000 0.08980  0.97300  0.46040  Biso   1.000  C
  H29      1.0000 0.95530  0.76110  0.18160  Biso   1.000  H
  H30      1.0000 0.98000  0.62740  0.13270  Biso   1.000  H
  O16      1.0000 0.42260  0.39530  0.80650  Biso   1.000  O
  C76      1.0000 0.33030  0.23560  0.71620  Biso   1.000  C
  C77      1.0000 0.41170  0.21810  0.68300  Biso   1.000  C
  C78      1.0000 0.42570  0.13920  0.65360  Biso   1.000  C
  C79      1.0000 0.58000  0.54500  0.95700  Biso   1.000  C
  C80      1.0000 0.58980  0.47300  0.96040  Biso   1.000  C
  H31      1.0000 0.45530  0.26110  0.68160  Biso   1.000  H
  H32      1.0000 0.48000  0.12740  0.63270  Biso   1.000  H
  O17      1.0000 0.89530  0.92260  0.80650  Biso   1.000  O
  C81      1.0000 0.73560  0.83030  0.71620  Biso   1.000  C
  C82      1.0000 0.71810  0.91170  0.68300  Biso   1.000  C
  C83      1.0000 0.63920  0.92570  0.65360  Biso   1.000  C
  C84      1.0000 0.04500  0.08000  0.95700  Biso   1.000  C
  C85      1.0000 0.97300  0.08980  0.96040  Biso   1.000  C
  H33      1.0000 0.76110  0.95530  0.68160  Biso   1.000  H
  H34      1.0000 0.62740  0.98000  0.63270  Biso   1.000  H
  O18      1.0000 0.39530  0.42260  0.30650  Biso   1.000  O
  C86      1.0000 0.23560  0.33030  0.21620  Biso   1.000  C
  C87      1.0000 0.21810  0.41170  0.18300  Biso   1.000  C
  C88      1.0000 0.13920  0.42570  0.15360  Biso   1.000  C
  C89      1.0000 0.54500  0.58000  0.45700  Biso   1.000  C
  C90      1.0000 0.47300  0.58980  0.46040  Biso   1.000  C
  H35      1.0000 0.26110  0.45530  0.18160  Biso   1.000  H
  H36      1.0000 0.12740  0.48000  0.13270  Biso   1.000  H
  O19      1.0000 0.10470  0.07740  0.80650  Biso   1.000  O
  C91      1.0000 0.26440  0.16970  0.71620  Biso   1.000  C
  C92      1.0000 0.28190  0.08830  0.68300  Biso   1.000  C
  C93      1.0000 0.36080  0.07430  0.65360  Biso   1.000  C
  C94      1.0000 0.95500  0.92000  0.95700  Biso   1.000  C
  C95      1.0000 0.02700  0.91020  0.96040  Biso   1.000  C
  H37      1.0000 0.23890  0.04470  0.68160  Biso   1.000  H
  H38      1.0000 0.37260  0.02000  0.63270  Biso   1.000  H
  O20      1.0000 0.60470  0.57740  0.30650  Biso   1.000  O
  C96      1.0000 0.76440  0.66970  0.21620  Biso   1.000  C
  C97      1.0000 0.78190  0.58830  0.18300  Biso   1.000  C
  C98      1.0000 0.86080  0.57430  0.15360  Biso   1.000  C
  C99      1.0000 0.45500  0.42000  0.45700  Biso   1.000  C
  C100     1.0000 0.52700  0.41020  0.46040  Biso   1.000  C
  H39      1.0000 0.73890  0.54470  0.18160  Biso   1.000  H
  H40      1.0000 0.87260  0.52000  0.13270  Biso   1.000  H
  O21      1.0000 0.07740  0.89530  0.80650  Biso   1.000  O
  C101     1.0000 0.16970  0.73560  0.71620  Biso   1.000  C
  C102     1.0000 0.08830  0.71810  0.68300  Biso   1.000  C
  C103     1.0000 0.07430  0.63920  0.65360  Biso   1.000  C
  C104     1.0000 0.92000  0.04500  0.95700  Biso   1.000  C
  C105     1.0000 0.91020  0.97300  0.96040  Biso   1.000  C
  H41      1.0000 0.04470  0.76110  0.68160  Biso   1.000  H
  H42      1.0000 0.02000  0.62740  0.63270  Biso   1.000  H
  O22      1.0000 0.57740  0.39530  0.30650  Biso   1.000  O
  C106     1.0000 0.66970  0.23560  0.21620  Biso   1.000  C
  C107     1.0000 0.58830  0.21810  0.18300  Biso   1.000  C
  C108     1.0000 0.57430  0.13920  0.15360  Biso   1.000  C
  C109     1.0000 0.42000  0.54500  0.45700  Biso   1.000  C
  C110     1.0000 0.41020  0.47300  0.46040  Biso   1.000  C
  H43      1.0000 0.54470  0.26110  0.18160  Biso   1.000  H
  H44      1.0000 0.52000  0.12740  0.13270  Biso   1.000  H
  O23      1.0000 0.92260  0.10470  0.80650  Biso   1.000  O
  C111     1.0000 0.83030  0.26440  0.71620  Biso   1.000  C
  C112     1.0000 0.91170  0.28190  0.68300  Biso   1.000  C
  C113     1.0000 0.92570  0.36080  0.65360  Biso   1.000  C
  C114     1.0000 0.08000  0.95500  0.95700  Biso   1.000  C
  C115     1.0000 0.08980  0.02700  0.96040  Biso   1.000  C
  H45      1.0000 0.95530  0.23890  0.68160  Biso   1.000  H
  H46      1.0000 0.98000  0.37260  0.63270  Biso   1.000  H
  O24      1.0000 0.42260  0.60470  0.30650  Biso   1.000  O
  C116     1.0000 0.33030  0.76440  0.21620  Biso   1.000  C
  C117     1.0000 0.41170  0.78190  0.18300  Biso   1.000  C
  C118     1.0000 0.42570  0.86080  0.15360  Biso   1.000  C
  C119     1.0000 0.58000  0.45500  0.45700  Biso   1.000  C
  C120     1.0000 0.58980  0.52700  0.46040  Biso   1.000  C
  H47      1.0000 0.45530  0.73890  0.18160  Biso   1.000  H
  H48      1.0000 0.48000  0.87260  0.13270  Biso   1.000  H
  O25      1.0000 0.10470  0.92260  0.69350  Biso   1.000  O
  C121     1.0000 0.26440  0.83030  0.78380  Biso   1.000  C
  C122     1.0000 0.28190  0.91170  0.81700  Biso   1.000  C
  C123     1.0000 0.36080  0.92570  0.84640  Biso   1.000  C
  C124     1.0000 0.95500  0.08000  0.54300  Biso   1.000  C
  C125     1.0000 0.02700  0.08980  0.53960  Biso   1.000  C
  H49      1.0000 0.23890  0.95530  0.81840  Biso   1.000  H
  H50      1.0000 0.37260  0.98000  0.86730  Biso   1.000  H
  O26      1.0000 0.60470  0.42260  0.19350  Biso   1.000  O
  C126     1.0000 0.76440  0.33030  0.28380  Biso   1.000  C
  C127     1.0000 0.78190  0.41170  0.31700  Biso   1.000  C
  C128     1.0000 0.86080  0.42570  0.34640  Biso   1.000  C
  C129     1.0000 0.45500  0.58000  0.04300  Biso   1.000  C
  C130     1.0000 0.52700  0.58980  0.03960  Biso   1.000  C
  H51      1.0000 0.73890  0.45530  0.31840  Biso   1.000  H
  H52      1.0000 0.87260  0.48000  0.36730  Biso   1.000  H
  O27      1.0000 0.89530  0.07740  0.69350  Biso   1.000  O
  C131     1.0000 0.73560  0.16970  0.78380  Biso   1.000  C
  C132     1.0000 0.71810  0.08830  0.81700  Biso   1.000  C
  C133     1.0000 0.63920  0.07430  0.84640  Biso   1.000  C
  C134     1.0000 0.04500  0.92000  0.54300  Biso   1.000  C
  C135     1.0000 0.97300  0.91020  0.53960  Biso   1.000  C
  H53      1.0000 0.76110  0.04470  0.81840  Biso   1.000  H
  H54      1.0000 0.62740  0.02000  0.86730  Biso   1.000  H
  O28      1.0000 0.39530  0.57740  0.19350  Biso   1.000  O
  C136     1.0000 0.23560  0.66970  0.28380  Biso   1.000  C
  C137     1.0000 0.21810  0.58830  0.31700  Biso   1.000  C
  C138     1.0000 0.13920  0.57430  0.34640  Biso   1.000  C
  C139     1.0000 0.54500  0.42000  0.04300  Biso   1.000  C
  C140     1.0000 0.47300  0.41020  0.03960  Biso   1.000  C
  H55      1.0000 0.26110  0.54470  0.31840  Biso   1.000  H
  H56      1.0000 0.12740  0.52000  0.36730  Biso   1.000  H
  O29      1.0000 0.92260  0.89530  0.69350  Biso   1.000  O
  C141     1.0000 0.83030  0.73560  0.78380  Biso   1.000  C
  C142     1.0000 0.91170  0.71810  0.81700  Biso   1.000  C
  C143     1.0000 0.92570  0.63920  0.84640  Biso   1.000  C
  C144     1.0000 0.08000  0.04500  0.54300  Biso   1.000  C
  C145     1.0000 0.08980  0.97300  0.53960  Biso   1.000  C
  H57      1.0000 0.95530  0.76110  0.81840  Biso   1.000  H
  H58      1.0000 0.98000  0.62740  0.86730  Biso   1.000  H
  O30      1.0000 0.42260  0.39530  0.19350  Biso   1.000  O
  C146     1.0000 0.33030  0.23560  0.28380  Biso   1.000  C
  C147     1.0000 0.41170  0.21810  0.31700  Biso   1.000  C
  C148     1.0000 0.42570  0.13920  0.34640  Biso   1.000  C
  C149     1.0000 0.58000  0.54500  0.04300  Biso   1.000  C
  C150     1.0000 0.58980  0.47300  0.03960  Biso   1.000  C
  H59      1.0000 0.45530  0.26110  0.31840  Biso   1.000  H
  H60      1.0000 0.48000  0.12740  0.36730  Biso   1.000  H
  O31      1.0000 0.07740  0.10470  0.69350  Biso   1.000  O
  C151     1.0000 0.16970  0.26440  0.78380  Biso   1.000  C
  C152     1.0000 0.08830  0.28190  0.81700  Biso   1.000  C
  C153     1.0000 0.07430  0.36080  0.84640  Biso   1.000  C
  C154     1.0000 0.92000  0.95500  0.54300  Biso   1.000  C
  C155     1.0000 0.91020  0.02700  0.53960  Biso   1.000  C
  H61      1.0000 0.04470  0.23890  0.81840  Biso   1.000  H
  H62      1.0000 0.02000  0.37260  0.86730  Biso   1.000  H
  O32      1.0000 0.57740  0.60470  0.19350  Biso   1.000  O
  C156     1.0000 0.66970  0.76440  0.28380  Biso   1.000  C
  C157     1.0000 0.58830  0.78190  0.31700  Biso   1.000  C
  C158     1.0000 0.57430  0.86080  0.34640  Biso   1.000  C
  C159     1.0000 0.42000  0.45500  0.04300  Biso   1.000  C
  C160     1.0000 0.41020  0.52700  0.03960  Biso   1.000  C
  H63      1.0000 0.54470  0.73890  0.31840  Biso   1.000  H
  H64      1.0000 0.52000  0.87260  0.36730  Biso   1.000  H
  Zn1      1.0000 0.00000  0.00000  0.17446  Biso   1.000  Zn
  N1       1.0000 0.00000  0.00000  0.06690  Biso   1.000  N
  Zn2      1.0000 0.50000  0.50000  0.67446  Biso   1.000  Zn
  N2       1.0000 0.50000  0.50000  0.56690  Biso   1.000  N
  Zn3      1.0000 0.00000  0.00000  0.32554  Biso   1.000  Zn
  N3       1.0000 0.00000  0.00000  0.43310  Biso   1.000  N
  Zn4      1.0000 0.50000  0.50000  0.82554  Biso   1.000  Zn
  N4       1.0000 0.50000  0.50000  0.93310  Biso   1.000  N
  Zn5      1.0000 0.00000  0.00000  0.82554  Biso   1.000  Zn
  N5       1.0000 0.00000  0.00000  0.93310  Biso   1.000  N
  Zn6      1.0000 0.50000  0.50000  0.32554  Biso   1.000  Zn
  N6       1.0000 0.50000  0.50000  0.43310  Biso   1.000  N
  Zn7      1.0000 0.00000  0.00000  0.67446  Biso   1.000  Zn
  N7       1.0000 0.00000  0.00000  0.56690  Biso   1.000  N
  Zn8      1.0000 0.50000  0.50000  0.17446  Biso   1.000  Zn
  N8       1.0000 0.50000  0.50000  0.06690  Biso   1.000  N
  C161     1.0000 0.18560  0.18560  0.25000  Biso   1.000  C
  C162     1.0000 0.11670  0.11670  0.25000  Biso   1.000  C
  C163     1.0000 0.68560  0.68560  0.75000  Biso   1.000  C
  C164     1.0000 0.61670  0.61670  0.75000  Biso   1.000  C
  C165     1.0000 0.81440  0.81440  0.25000  Biso   1.000  C
  C166     1.0000 0.88330  0.88330  0.25000  Biso   1.000  C
  C167     1.0000 0.31440  0.31440  0.75000  Biso   1.000  C
  C168     1.0000 0.38330  0.38330  0.75000  Biso   1.000  C
  C169     1.0000 0.81440  0.18560  0.25000  Biso   1.000  C
  C170     1.0000 0.88330  0.11670  0.25000  Biso   1.000  C
  C171     1.0000 0.31440  0.68560  0.75000  Biso   1.000  C
  C172     1.0000 0.38330  0.61670  0.75000  Biso   1.000  C
  C173     1.0000 0.18560  0.81440  0.25000  Biso   1.000  C
  C174     1.0000 0.11670  0.88330  0.25000  Biso   1.000  C
  C175     1.0000 0.68560  0.31440  0.75000  Biso   1.000  C
  C176     1.0000 0.61670  0.38330  0.75000  Biso   1.000  C
  C177     1.0000 0.81440  0.81440  0.75000  Biso   1.000  C
  C178     1.0000 0.88330  0.88330  0.75000  Biso   1.000  C
  C179     1.0000 0.31440  0.31440  0.25000  Biso   1.000  C
  C180     1.0000 0.38330  0.38330  0.25000  Biso   1.000  C
  C181     1.0000 0.18560  0.18560  0.75000  Biso   1.000  C
  C182     1.0000 0.11670  0.11670  0.75000  Biso   1.000  C
  C183     1.0000 0.68560  0.68560  0.25000  Biso   1.000  C
  C184     1.0000 0.61670  0.61670  0.25000  Biso   1.000  C
  C185     1.0000 0.18560  0.81440  0.75000  Biso   1.000  C
  C186     1.0000 0.11670  0.88330  0.75000  Biso   1.000  C
  C187     1.0000 0.68560  0.31440  0.25000  Biso   1.000  C
  C188     1.0000 0.61670  0.38330  0.25000  Biso   1.000  C
  C189     1.0000 0.81440  0.18560  0.75000  Biso   1.000  C
  C190     1.0000 0.88330  0.11670  0.75000  Biso   1.000  C
  C191     1.0000 0.31440  0.68560  0.25000  Biso   1.000  C
  C192     1.0000 0.38330  0.61670  0.25000  Biso   1.000  C
