data_image0
_cell_length_a       6.6237
_cell_length_b       9.4227
_cell_length_c       9.7034
_cell_angle_alpha    108.362
_cell_angle_beta     93.685
_cell_angle_gamma    107.395

_symmetry_space_group_name_H-M    "P 1"
_symmetry_int_tables_number       1

loop_
  _symmetry_equiv_pos_as_xyz
  'x, y, z'

loop_
  _atom_site_label
  _atom_site_occupancy
  _atom_site_fract_x
  _atom_site_fract_y
  _atom_site_fract_z
  _atom_site_thermal_displace_type
  _atom_site_B_iso_or_equiv
  _atom_site_type_symbol
  O1       1.0000 0.23360  0.00130  0.91070  Biso   1.000  O
  O2       1.0000 0.50190  0.18150  0.16460  Biso   1.000  O
  O3       1.0000 0.17980  0.16450  0.17680  Biso   1.000  O
  O4       1.0000 0.96840  0.15580  0.92190  Biso   1.000  O
  O5       1.0000 0.64730  0.14810  0.92140  Biso   1.000  O
  C1       1.0000 0.37090  0.22500  0.24410  Biso   1.000  C
  C2       1.0000 0.46110  0.39570  0.34930  Biso   1.000  C
  C3       1.0000 0.63690  0.39560  0.45800  Biso   1.000  C
  C4       1.0000 0.28050  0.43730  0.42390  Biso   1.000  C
  C5       1.0000 0.82610  0.22870  0.89700  Biso   1.000  C
  C6       1.0000 0.90290  0.38950  0.87490  Biso   1.000  C
  C7       1.0000 0.76340  0.48380  0.95460  Biso   1.000  C
  C8       1.0000 0.14190  0.45650  0.88480  Biso   1.000  C
  O6       1.0000 0.76640  0.99870  0.08930  Biso   1.000  O
  O7       1.0000 0.49810  0.81850  0.83540  Biso   1.000  O
  O8       1.0000 0.82020  0.83550  0.82320  Biso   1.000  O
  O9       1.0000 0.03160  0.84420  0.07810  Biso   1.000  O
  O10      1.0000 0.35270  0.85190  0.07860  Biso   1.000  O
  C9       1.0000 0.62910  0.77500  0.75590  Biso   1.000  C
  C10      1.0000 0.53890  0.60430  0.65070  Biso   1.000  C
  C11      1.0000 0.36310  0.60440  0.54200  Biso   1.000  C
  C12      1.0000 0.71950  0.56270  0.57610  Biso   1.000  C
  C13      1.0000 0.17390  0.77130  0.10300  Biso   1.000  C
  C14      1.0000 0.09710  0.61050  0.12510  Biso   1.000  C
  C15      1.0000 0.23660  0.51620  0.04540  Biso   1.000  C
  C16      1.0000 0.85810  0.54350  0.11520  Biso   1.000  C
  Al1      1.0000 0.00000  0.00000  0.00000  Biso   1.000  Al
  Al2      1.0000 0.50000  0.00000  0.00000  Biso   1.000  Al
