data_image0
_cell_length_a       26.6257
_cell_length_b       26.6257
_cell_length_c       20.2942
_cell_angle_alpha    90
_cell_angle_beta     90
_cell_angle_gamma    90

_symmetry_space_group_name_H-M    "P 1"
_symmetry_int_tables_number       1

loop_
  _symmetry_equiv_pos_as_xyz
  'x, y, z'

loop_
  _atom_site_label
  _atom_site_occupancy
  _atom_site_fract_x
  _atom_site_fract_y
  _atom_site_fract_z
  _atom_site_thermal_displace_type
  _atom_site_B_iso_or_equiv
  _atom_site_type_symbol
  Zn1      1.0000 0.31151  0.28915  0.17089  Biso   1.000  Zn
  Zn2      1.0000 0.30546  0.29531  0.68567  Biso   1.000  Zn
  N1       1.0000 0.30251  0.23342  0.10350  Biso   1.000  N
  N2       1.0000 0.26638  0.26974  0.24810  Biso   1.000  N
  O1       1.0000 0.38836  0.25323  0.92650  Biso   1.000  O
  N3       1.0000 0.25561  0.28076  0.61170  Biso   1.000  N
  O2       1.0000 0.37946  0.28340  0.20530  Biso   1.000  O
  O3       1.0000 0.40794  0.17342  0.91230  Biso   1.000  O
  C1       1.0000 0.32770  0.22680  0.04940  Biso   1.000  C
  H1       1.0000 0.35460  0.24690  0.03690  Biso   1.000  H
  C2       1.0000 0.41900  0.22060  0.91290  Biso   1.000  C
  C3       1.0000 0.26360  0.29200  0.30500  Biso   1.000  C
  H2       1.0000 0.28430  0.31850  0.31750  Biso   1.000  H
  C4       1.0000 0.25270  0.30240  0.55390  Biso   1.000  C
  H3       1.0000 0.27330  0.32880  0.54070  Biso   1.000  H
  O4       1.0000 0.40450  0.30580  0.10630  Biso   1.000  O
  C5       1.0000 0.41330  0.29410  0.16470  Biso   1.000  C
  C6       1.0000 0.47500  0.28520  0.25450  Biso   1.000  C
  H4       1.0000 0.44760  0.28500  0.28300  Biso   1.000  H
  C7       1.0000 0.48160  0.28480  0.88470  Biso   1.000  C
  H5       1.0000 0.45680  0.30900  0.88970  Biso   1.000  H
  C8       1.0000 0.47190  0.23500  0.89580  Biso   1.000  C
  C9       1.0000 0.53100  0.29800  0.86540  Biso   1.000  C
  H6       1.0000 0.53810  0.33140  0.85610  Biso   1.000  H
  C10      1.0000 0.50860  0.19910  0.89020  Biso   1.000  C
  H7       1.0000 0.50070  0.16570  0.89820  Biso   1.000  H
  C11      1.0000 0.46620  0.28920  0.18890  Biso   1.000  C
  C12      1.0000 0.55830  0.21230  0.87260  Biso   1.000  C
  C13      1.0000 0.52270  0.28150  0.28120  Biso   1.000  C
  C14      1.0000 0.50600  0.29070  0.14510  Biso   1.000  C
  H8       1.0000 0.50100  0.29410  0.10000  Biso   1.000  H
  C15      1.0000 0.63300  0.17020  0.81930  Biso   1.000  C
  H9       1.0000 0.62000  0.18200  0.77700  Biso   1.000  H
  C16      1.0000 0.59710  0.17270  0.86990  Biso   1.000  C
  C17      1.0000 0.59960  0.13760  0.92040  Biso   1.000  C
  H10      1.0000 0.57630  0.13870  0.95450  Biso   1.000  H
  C18      1.0000 0.52700  0.27830  0.35380  Biso   1.000  C
  C19      1.0000 0.54860  0.23770  0.45680  Biso   1.000  C
  H11      1.0000 0.56670  0.21250  0.47800  Biso   1.000  H
  C20      1.0000 0.56830  0.26360  0.86000  Biso   1.000  C
  C21      1.0000 0.56300  0.28220  0.23830  Biso   1.000  C
  O5       1.0000 0.62330  0.30600  0.78400  Biso   1.000  O
  C22      1.0000 0.61940  0.28450  0.83820  Biso   1.000  C
  O6       1.0000 0.65310  0.27870  0.87790  Biso   1.000  O
  C23      1.0000 0.55060  0.24110  0.38580  Biso   1.000  C
  H12      1.0000 0.56850  0.21720  0.36200  Biso   1.000  H
  O7       1.0000 0.36946  0.27990  0.64040  Biso   1.000  O
  O8       1.0000 0.39910  0.29390  0.73980  Biso   1.000  O
  C24      1.0000 0.51410  0.26370  0.56390  Biso   1.000  C
  C25      1.0000 0.40510  0.28170  0.68110  Biso   1.000  C
  C26      1.0000 0.45730  0.26920  0.65470  Biso   1.000  C
  C27      1.0000 0.55290  0.25180  0.60790  Biso   1.000  C
  C28      1.0000 0.46680  0.26960  0.58980  Biso   1.000  C
  H13      1.0000 0.44000  0.27420  0.56090  Biso   1.000  H
  C29      1.0000 0.52240  0.26840  0.49150  Biso   1.000  C
  O9       1.0000 0.63260  0.28060  0.57110  Biso   1.000  O
  C30      1.0000 0.60670  0.24590  0.58670  Biso   1.000  C
  C31      1.0000 0.49410  0.25760  0.69770  Biso   1.000  C
  H14      1.0000 0.48720  0.25560  0.74250  Biso   1.000  H
  C32      1.0000 0.50180  0.31150  0.45900  Biso   1.000  C
  H15      1.0000 0.48740  0.33710  0.48380  Biso   1.000  H
  C33      1.0000 0.54170  0.24870  0.67490  Biso   1.000  C
  H16      1.0000 0.56700  0.24050  0.70460  Biso   1.000  H
  C34      1.0000 0.50320  0.31510  0.39100  Biso   1.000  C
  H17      1.0000 0.48810  0.34230  0.37010  Biso   1.000  H
  C35      1.0000 0.55400  0.28700  0.17200  Biso   1.000  C
  H18      1.0000 0.58140  0.28770  0.14350  Biso   1.000  H
  O10      1.0000 0.62334  0.20090  0.59090  Biso   1.000  O
  O11      1.0000 0.63350  0.30570  0.29670  Biso   1.000  O
  O12      1.0000 0.64350  0.23850  0.24150  Biso   1.000  O
  C36      1.0000 0.61720  0.27780  0.26150  Biso   1.000  C
  N4       1.0000 0.29200  0.24402  0.75590  Biso   1.000  N
  C37      1.0000 0.31780  0.23720  0.81050  Biso   1.000  C
  H19      1.0000 0.34480  0.25720  0.82300  Biso   1.000  H
  Zn3      1.0000 0.68849  0.71085  0.17089  Biso   1.000  Zn
  Zn4      1.0000 0.69454  0.70469  0.68567  Biso   1.000  Zn
  N5       1.0000 0.69749  0.76658  0.10350  Biso   1.000  N
  N6       1.0000 0.73362  0.73026  0.24810  Biso   1.000  N
  O13      1.0000 0.61164  0.74677  0.92650  Biso   1.000  O
  N7       1.0000 0.74439  0.71924  0.61170  Biso   1.000  N
  O14      1.0000 0.62054  0.71660  0.20530  Biso   1.000  O
  O15      1.0000 0.59206  0.82658  0.91230  Biso   1.000  O
  C38      1.0000 0.67230  0.77320  0.04940  Biso   1.000  C
  H20      1.0000 0.64540  0.75310  0.03690  Biso   1.000  H
  C39      1.0000 0.58100  0.77940  0.91290  Biso   1.000  C
  C40      1.0000 0.73640  0.70800  0.30500  Biso   1.000  C
  H21      1.0000 0.71570  0.68150  0.31750  Biso   1.000  H
  C41      1.0000 0.74730  0.69760  0.55390  Biso   1.000  C
  H22      1.0000 0.72670  0.67120  0.54070  Biso   1.000  H
  O16      1.0000 0.59550  0.69420  0.10630  Biso   1.000  O
  C42      1.0000 0.58670  0.70590  0.16470  Biso   1.000  C
  C43      1.0000 0.52500  0.71480  0.25450  Biso   1.000  C
  H23      1.0000 0.55240  0.71500  0.28300  Biso   1.000  H
  C44      1.0000 0.51840  0.71520  0.88470  Biso   1.000  C
  H24      1.0000 0.54320  0.69100  0.88970  Biso   1.000  H
  C45      1.0000 0.52810  0.76500  0.89580  Biso   1.000  C
  C46      1.0000 0.46900  0.70200  0.86540  Biso   1.000  C
  H25      1.0000 0.46190  0.66860  0.85610  Biso   1.000  H
  C47      1.0000 0.49140  0.80090  0.89020  Biso   1.000  C
  H26      1.0000 0.49930  0.83430  0.89820  Biso   1.000  H
  C48      1.0000 0.53380  0.71080  0.18890  Biso   1.000  C
  C49      1.0000 0.44170  0.78770  0.87260  Biso   1.000  C
  C50      1.0000 0.47730  0.71850  0.28120  Biso   1.000  C
  C51      1.0000 0.49400  0.70930  0.14510  Biso   1.000  C
  H27      1.0000 0.49900  0.70590  0.10000  Biso   1.000  H
  C52      1.0000 0.36700  0.82980  0.81930  Biso   1.000  C
  H28      1.0000 0.38000  0.81800  0.77700  Biso   1.000  H
  C53      1.0000 0.40290  0.82730  0.86990  Biso   1.000  C
  C54      1.0000 0.40040  0.86240  0.92040  Biso   1.000  C
  H29      1.0000 0.42370  0.86130  0.95450  Biso   1.000  H
  C55      1.0000 0.47300  0.72170  0.35380  Biso   1.000  C
  C56      1.0000 0.45140  0.76230  0.45680  Biso   1.000  C
  H30      1.0000 0.43330  0.78750  0.47800  Biso   1.000  H
  C57      1.0000 0.43170  0.73640  0.86000  Biso   1.000  C
  C58      1.0000 0.43700  0.71780  0.23830  Biso   1.000  C
  O17      1.0000 0.37670  0.69400  0.78400  Biso   1.000  O
  C59      1.0000 0.38060  0.71550  0.83820  Biso   1.000  C
  O18      1.0000 0.34690  0.72130  0.87790  Biso   1.000  O
  C60      1.0000 0.44940  0.75890  0.38580  Biso   1.000  C
  H31      1.0000 0.43150  0.78280  0.36200  Biso   1.000  H
  O19      1.0000 0.63054  0.72010  0.64040  Biso   1.000  O
  O20      1.0000 0.60090  0.70610  0.73980  Biso   1.000  O
  C61      1.0000 0.48590  0.73630  0.56390  Biso   1.000  C
  C62      1.0000 0.59490  0.71830  0.68110  Biso   1.000  C
  C63      1.0000 0.54270  0.73080  0.65470  Biso   1.000  C
  C64      1.0000 0.44710  0.74820  0.60790  Biso   1.000  C
  C65      1.0000 0.53320  0.73040  0.58980  Biso   1.000  C
  H32      1.0000 0.56000  0.72580  0.56090  Biso   1.000  H
  C66      1.0000 0.47760  0.73160  0.49150  Biso   1.000  C
  O21      1.0000 0.36740  0.71940  0.57110  Biso   1.000  O
  C67      1.0000 0.39330  0.75410  0.58670  Biso   1.000  C
  C68      1.0000 0.50590  0.74240  0.69770  Biso   1.000  C
  H33      1.0000 0.51280  0.74440  0.74250  Biso   1.000  H
  C69      1.0000 0.49820  0.68850  0.45900  Biso   1.000  C
  H34      1.0000 0.51260  0.66290  0.48380  Biso   1.000  H
  C70      1.0000 0.45830  0.75130  0.67490  Biso   1.000  C
  H35      1.0000 0.43300  0.75950  0.70460  Biso   1.000  H
  C71      1.0000 0.49680  0.68490  0.39100  Biso   1.000  C
  H36      1.0000 0.51190  0.65770  0.37010  Biso   1.000  H
  C72      1.0000 0.44600  0.71300  0.17200  Biso   1.000  C
  H37      1.0000 0.41860  0.71230  0.14350  Biso   1.000  H
  O22      1.0000 0.37666  0.79910  0.59090  Biso   1.000  O
  O23      1.0000 0.36650  0.69430  0.29670  Biso   1.000  O
  O24      1.0000 0.35650  0.76150  0.24150  Biso   1.000  O
  C73      1.0000 0.38280  0.72220  0.26150  Biso   1.000  C
  N8       1.0000 0.70800  0.75598  0.75590  Biso   1.000  N
  C74      1.0000 0.68220  0.76280  0.81050  Biso   1.000  C
  H38      1.0000 0.65520  0.74280  0.82300  Biso   1.000  H
  Zn5      1.0000 0.28915  0.68849  0.82911  Biso   1.000  Zn
  Zn6      1.0000 0.29531  0.69454  0.31433  Biso   1.000  Zn
  N9       1.0000 0.23342  0.69749  0.89650  Biso   1.000  N
  N10      1.0000 0.26974  0.73362  0.75190  Biso   1.000  N
  O25      1.0000 0.25323  0.61164  0.07350  Biso   1.000  O
  N11      1.0000 0.28076  0.74439  0.38830  Biso   1.000  N
  O26      1.0000 0.28340  0.62054  0.79470  Biso   1.000  O
  O27      1.0000 0.17342  0.59206  0.08770  Biso   1.000  O
  C75      1.0000 0.22680  0.67230  0.95060  Biso   1.000  C
  H39      1.0000 0.24690  0.64540  0.96310  Biso   1.000  H
  C76      1.0000 0.22060  0.58100  0.08710  Biso   1.000  C
  C77      1.0000 0.29200  0.73640  0.69500  Biso   1.000  C
  H40      1.0000 0.31850  0.71570  0.68250  Biso   1.000  H
  C78      1.0000 0.30240  0.74730  0.44610  Biso   1.000  C
  H41      1.0000 0.32880  0.72670  0.45930  Biso   1.000  H
  O28      1.0000 0.30580  0.59550  0.89370  Biso   1.000  O
  C79      1.0000 0.29410  0.58670  0.83530  Biso   1.000  C
  C80      1.0000 0.28520  0.52500  0.74550  Biso   1.000  C
  H42      1.0000 0.28500  0.55240  0.71700  Biso   1.000  H
  C81      1.0000 0.28480  0.51840  0.11530  Biso   1.000  C
  H43      1.0000 0.30900  0.54320  0.11030  Biso   1.000  H
  C82      1.0000 0.23500  0.52810  0.10420  Biso   1.000  C
  C83      1.0000 0.29800  0.46900  0.13460  Biso   1.000  C
  H44      1.0000 0.33140  0.46190  0.14390  Biso   1.000  H
  C84      1.0000 0.19910  0.49140  0.10980  Biso   1.000  C
  H45      1.0000 0.16570  0.49930  0.10180  Biso   1.000  H
  C85      1.0000 0.28920  0.53380  0.81110  Biso   1.000  C
  C86      1.0000 0.21230  0.44170  0.12740  Biso   1.000  C
  C87      1.0000 0.28150  0.47730  0.71880  Biso   1.000  C
  C88      1.0000 0.29070  0.49400  0.85490  Biso   1.000  C
  H46      1.0000 0.29410  0.49900  0.90000  Biso   1.000  H
  C89      1.0000 0.17020  0.36700  0.18070  Biso   1.000  C
  H47      1.0000 0.18200  0.38000  0.22300  Biso   1.000  H
  C90      1.0000 0.17270  0.40290  0.13010  Biso   1.000  C
  C91      1.0000 0.13760  0.40040  0.07960  Biso   1.000  C
  H48      1.0000 0.13870  0.42370  0.04550  Biso   1.000  H
  C92      1.0000 0.27830  0.47300  0.64620  Biso   1.000  C
  C93      1.0000 0.23770  0.45140  0.54320  Biso   1.000  C
  H49      1.0000 0.21250  0.43330  0.52200  Biso   1.000  H
  C94      1.0000 0.26360  0.43170  0.14000  Biso   1.000  C
  C95      1.0000 0.28220  0.43700  0.76170  Biso   1.000  C
  O29      1.0000 0.30600  0.37670  0.21600  Biso   1.000  O
  C96      1.0000 0.28450  0.38060  0.16180  Biso   1.000  C
  O30      1.0000 0.27870  0.34690  0.12210  Biso   1.000  O
  C97      1.0000 0.24110  0.44940  0.61420  Biso   1.000  C
  H50      1.0000 0.21720  0.43150  0.63800  Biso   1.000  H
  O31      1.0000 0.27990  0.63054  0.35960  Biso   1.000  O
  O32      1.0000 0.29390  0.60090  0.26020  Biso   1.000  O
  C98      1.0000 0.26370  0.48590  0.43610  Biso   1.000  C
  C99      1.0000 0.28170  0.59490  0.31890  Biso   1.000  C
  C100     1.0000 0.26920  0.54270  0.34530  Biso   1.000  C
  C101     1.0000 0.25180  0.44710  0.39210  Biso   1.000  C
  C102     1.0000 0.26960  0.53320  0.41020  Biso   1.000  C
  H51      1.0000 0.27420  0.56000  0.43910  Biso   1.000  H
  C103     1.0000 0.26840  0.47760  0.50850  Biso   1.000  C
  O33      1.0000 0.28060  0.36740  0.42890  Biso   1.000  O
  C104     1.0000 0.24590  0.39330  0.41330  Biso   1.000  C
  C105     1.0000 0.25760  0.50590  0.30230  Biso   1.000  C
  H52      1.0000 0.25560  0.51280  0.25750  Biso   1.000  H
  C106     1.0000 0.31150  0.49820  0.54100  Biso   1.000  C
  H53      1.0000 0.33710  0.51260  0.51620  Biso   1.000  H
  C107     1.0000 0.24870  0.45830  0.32510  Biso   1.000  C
  H54      1.0000 0.24050  0.43300  0.29540  Biso   1.000  H
  C108     1.0000 0.31510  0.49680  0.60900  Biso   1.000  C
  H55      1.0000 0.34230  0.51190  0.62990  Biso   1.000  H
  C109     1.0000 0.28700  0.44600  0.82800  Biso   1.000  C
  H56      1.0000 0.28770  0.41860  0.85650  Biso   1.000  H
  O34      1.0000 0.20090  0.37666  0.40910  Biso   1.000  O
  O35      1.0000 0.30570  0.36650  0.70330  Biso   1.000  O
  O36      1.0000 0.23850  0.35650  0.75850  Biso   1.000  O
  C110     1.0000 0.27780  0.38280  0.73850  Biso   1.000  C
  N12      1.0000 0.24402  0.70800  0.24410  Biso   1.000  N
  C111     1.0000 0.23720  0.68220  0.18950  Biso   1.000  C
  H57      1.0000 0.25720  0.65520  0.17700  Biso   1.000  H
  Zn7      1.0000 0.71085  0.31151  0.82911  Biso   1.000  Zn
  Zn8      1.0000 0.70469  0.30546  0.31433  Biso   1.000  Zn
  N13      1.0000 0.76658  0.30251  0.89650  Biso   1.000  N
  N14      1.0000 0.73026  0.26638  0.75190  Biso   1.000  N
  O37      1.0000 0.74677  0.38836  0.07350  Biso   1.000  O
  N15      1.0000 0.71924  0.25561  0.38830  Biso   1.000  N
  O38      1.0000 0.71660  0.37946  0.79470  Biso   1.000  O
  O39      1.0000 0.82658  0.40794  0.08770  Biso   1.000  O
  C112     1.0000 0.77320  0.32770  0.95060  Biso   1.000  C
  H58      1.0000 0.75310  0.35460  0.96310  Biso   1.000  H
  C113     1.0000 0.77940  0.41900  0.08710  Biso   1.000  C
  C114     1.0000 0.70800  0.26360  0.69500  Biso   1.000  C
  H59      1.0000 0.68150  0.28430  0.68250  Biso   1.000  H
  C115     1.0000 0.69760  0.25270  0.44610  Biso   1.000  C
  H60      1.0000 0.67120  0.27330  0.45930  Biso   1.000  H
  O40      1.0000 0.69420  0.40450  0.89370  Biso   1.000  O
  C116     1.0000 0.70590  0.41330  0.83530  Biso   1.000  C
  C117     1.0000 0.71480  0.47500  0.74550  Biso   1.000  C
  H61      1.0000 0.71500  0.44760  0.71700  Biso   1.000  H
  C118     1.0000 0.71520  0.48160  0.11530  Biso   1.000  C
  H62      1.0000 0.69100  0.45680  0.11030  Biso   1.000  H
  C119     1.0000 0.76500  0.47190  0.10420  Biso   1.000  C
  C120     1.0000 0.70200  0.53100  0.13460  Biso   1.000  C
  H63      1.0000 0.66860  0.53810  0.14390  Biso   1.000  H
  C121     1.0000 0.80090  0.50860  0.10980  Biso   1.000  C
  H64      1.0000 0.83430  0.50070  0.10180  Biso   1.000  H
  C122     1.0000 0.71080  0.46620  0.81110  Biso   1.000  C
  C123     1.0000 0.78770  0.55830  0.12740  Biso   1.000  C
  C124     1.0000 0.71850  0.52270  0.71880  Biso   1.000  C
  C125     1.0000 0.70930  0.50600  0.85490  Biso   1.000  C
  H65      1.0000 0.70590  0.50100  0.90000  Biso   1.000  H
  C126     1.0000 0.82980  0.63300  0.18070  Biso   1.000  C
  H66      1.0000 0.81800  0.62000  0.22300  Biso   1.000  H
  C127     1.0000 0.82730  0.59710  0.13010  Biso   1.000  C
  C128     1.0000 0.86240  0.59960  0.07960  Biso   1.000  C
  H67      1.0000 0.86130  0.57630  0.04550  Biso   1.000  H
  C129     1.0000 0.72170  0.52700  0.64620  Biso   1.000  C
  C130     1.0000 0.76230  0.54860  0.54320  Biso   1.000  C
  H68      1.0000 0.78750  0.56670  0.52200  Biso   1.000  H
  C131     1.0000 0.73640  0.56830  0.14000  Biso   1.000  C
  C132     1.0000 0.71780  0.56300  0.76170  Biso   1.000  C
  O41      1.0000 0.69400  0.62330  0.21600  Biso   1.000  O
  C133     1.0000 0.71550  0.61940  0.16180  Biso   1.000  C
  O42      1.0000 0.72130  0.65310  0.12210  Biso   1.000  O
  C134     1.0000 0.75890  0.55060  0.61420  Biso   1.000  C
  H69      1.0000 0.78280  0.56850  0.63800  Biso   1.000  H
  O43      1.0000 0.72010  0.36946  0.35960  Biso   1.000  O
  O44      1.0000 0.70610  0.39910  0.26020  Biso   1.000  O
  C135     1.0000 0.73630  0.51410  0.43610  Biso   1.000  C
  C136     1.0000 0.71830  0.40510  0.31890  Biso   1.000  C
  C137     1.0000 0.73080  0.45730  0.34530  Biso   1.000  C
  C138     1.0000 0.74820  0.55290  0.39210  Biso   1.000  C
  C139     1.0000 0.73040  0.46680  0.41020  Biso   1.000  C
  H70      1.0000 0.72580  0.44000  0.43910  Biso   1.000  H
  C140     1.0000 0.73160  0.52240  0.50850  Biso   1.000  C
  O45      1.0000 0.71940  0.63260  0.42890  Biso   1.000  O
  C141     1.0000 0.75410  0.60670  0.41330  Biso   1.000  C
  C142     1.0000 0.74240  0.49410  0.30230  Biso   1.000  C
  H71      1.0000 0.74440  0.48720  0.25750  Biso   1.000  H
  C143     1.0000 0.68850  0.50180  0.54100  Biso   1.000  C
  H72      1.0000 0.66290  0.48740  0.51620  Biso   1.000  H
  C144     1.0000 0.75130  0.54170  0.32510  Biso   1.000  C
  H73      1.0000 0.75950  0.56700  0.29540  Biso   1.000  H
  C145     1.0000 0.68490  0.50320  0.60900  Biso   1.000  C
  H74      1.0000 0.65770  0.48810  0.62990  Biso   1.000  H
  C146     1.0000 0.71300  0.55400  0.82800  Biso   1.000  C
  H75      1.0000 0.71230  0.58140  0.85650  Biso   1.000  H
  O46      1.0000 0.79910  0.62334  0.40910  Biso   1.000  O
  O47      1.0000 0.69430  0.63350  0.70330  Biso   1.000  O
  O48      1.0000 0.76150  0.64350  0.75850  Biso   1.000  O
  C147     1.0000 0.72220  0.61720  0.73850  Biso   1.000  C
  N16      1.0000 0.75598  0.29200  0.24410  Biso   1.000  N
  C148     1.0000 0.76280  0.31780  0.18950  Biso   1.000  C
  H76      1.0000 0.74280  0.34480  0.17700  Biso   1.000  H
  Zn9      1.0000 0.18849  0.78915  0.82911  Biso   1.000  Zn
  Zn10     1.0000 0.19454  0.79531  0.31433  Biso   1.000  Zn
  N17      1.0000 0.19749  0.73342  0.89650  Biso   1.000  N
  N18      1.0000 0.23362  0.76974  0.75190  Biso   1.000  N
  O49      1.0000 0.11164  0.75323  0.07350  Biso   1.000  O
  N19      1.0000 0.24439  0.78076  0.38830  Biso   1.000  N
  O50      1.0000 0.12054  0.78340  0.79470  Biso   1.000  O
  O51      1.0000 0.09206  0.67342  0.08770  Biso   1.000  O
  C149     1.0000 0.17230  0.72680  0.95060  Biso   1.000  C
  H77      1.0000 0.14540  0.74690  0.96310  Biso   1.000  H
  C150     1.0000 0.08100  0.72060  0.08710  Biso   1.000  C
  C151     1.0000 0.23640  0.79200  0.69500  Biso   1.000  C
  H78      1.0000 0.21570  0.81850  0.68250  Biso   1.000  H
  C152     1.0000 0.24730  0.80240  0.44610  Biso   1.000  C
  H79      1.0000 0.22670  0.82880  0.45930  Biso   1.000  H
  O52      1.0000 0.09550  0.80580  0.89370  Biso   1.000  O
  C153     1.0000 0.08670  0.79410  0.83530  Biso   1.000  C
  C154     1.0000 0.02500  0.78520  0.74550  Biso   1.000  C
  H80      1.0000 0.05240  0.78500  0.71700  Biso   1.000  H
  C155     1.0000 0.01840  0.78480  0.11530  Biso   1.000  C
  H81      1.0000 0.04320  0.80900  0.11030  Biso   1.000  H
  C156     1.0000 0.02810  0.73500  0.10420  Biso   1.000  C
  C157     1.0000 0.96900  0.79800  0.13460  Biso   1.000  C
  H82      1.0000 0.96190  0.83140  0.14390  Biso   1.000  H
  C158     1.0000 0.99140  0.69910  0.10980  Biso   1.000  C
  H83      1.0000 0.99930  0.66570  0.10180  Biso   1.000  H
  C159     1.0000 0.03380  0.78920  0.81110  Biso   1.000  C
  C160     1.0000 0.94170  0.71230  0.12740  Biso   1.000  C
  C161     1.0000 0.97730  0.78150  0.71880  Biso   1.000  C
  C162     1.0000 0.99400  0.79070  0.85490  Biso   1.000  C
  H84      1.0000 0.99900  0.79410  0.90000  Biso   1.000  H
  C163     1.0000 0.86700  0.67020  0.18070  Biso   1.000  C
  H85      1.0000 0.88000  0.68200  0.22300  Biso   1.000  H
  C164     1.0000 0.90290  0.67270  0.13010  Biso   1.000  C
  C165     1.0000 0.90040  0.63760  0.07960  Biso   1.000  C
  H86      1.0000 0.92370  0.63870  0.04550  Biso   1.000  H
  C166     1.0000 0.97300  0.77830  0.64620  Biso   1.000  C
  C167     1.0000 0.95140  0.73770  0.54320  Biso   1.000  C
  H87      1.0000 0.93330  0.71250  0.52200  Biso   1.000  H
  C168     1.0000 0.93170  0.76360  0.14000  Biso   1.000  C
  C169     1.0000 0.93700  0.78220  0.76170  Biso   1.000  C
  O53      1.0000 0.87670  0.80600  0.21600  Biso   1.000  O
  C170     1.0000 0.88060  0.78450  0.16180  Biso   1.000  C
  O54      1.0000 0.84690  0.77870  0.12210  Biso   1.000  O
  C171     1.0000 0.94940  0.74110  0.61420  Biso   1.000  C
  H88      1.0000 0.93150  0.71720  0.63800  Biso   1.000  H
  O55      1.0000 0.13054  0.77990  0.35960  Biso   1.000  O
  O56      1.0000 0.10090  0.79390  0.26020  Biso   1.000  O
  C172     1.0000 0.98590  0.76370  0.43610  Biso   1.000  C
  C173     1.0000 0.09490  0.78170  0.31890  Biso   1.000  C
  C174     1.0000 0.04270  0.76920  0.34530  Biso   1.000  C
  C175     1.0000 0.94710  0.75180  0.39210  Biso   1.000  C
  C176     1.0000 0.03320  0.76960  0.41020  Biso   1.000  C
  H89      1.0000 0.06000  0.77420  0.43910  Biso   1.000  H
  C177     1.0000 0.97760  0.76840  0.50850  Biso   1.000  C
  O57      1.0000 0.86740  0.78060  0.42890  Biso   1.000  O
  C178     1.0000 0.89330  0.74590  0.41330  Biso   1.000  C
  C179     1.0000 0.00590  0.75760  0.30230  Biso   1.000  C
  H90      1.0000 0.01280  0.75560  0.25750  Biso   1.000  H
  C180     1.0000 0.99820  0.81150  0.54100  Biso   1.000  C
  H91      1.0000 0.01260  0.83710  0.51620  Biso   1.000  H
  C181     1.0000 0.95830  0.74870  0.32510  Biso   1.000  C
  H92      1.0000 0.93300  0.74050  0.29540  Biso   1.000  H
  C182     1.0000 0.99680  0.81510  0.60900  Biso   1.000  C
  H93      1.0000 0.01190  0.84230  0.62990  Biso   1.000  H
  C183     1.0000 0.94600  0.78700  0.82800  Biso   1.000  C
  H94      1.0000 0.91860  0.78770  0.85650  Biso   1.000  H
  O58      1.0000 0.87666  0.70090  0.40910  Biso   1.000  O
  O59      1.0000 0.86650  0.80570  0.70330  Biso   1.000  O
  O60      1.0000 0.85650  0.73850  0.75850  Biso   1.000  O
  C184     1.0000 0.88280  0.77780  0.73850  Biso   1.000  C
  N20      1.0000 0.20800  0.74402  0.24410  Biso   1.000  N
  C185     1.0000 0.18220  0.73720  0.18950  Biso   1.000  C
  H95      1.0000 0.15520  0.75720  0.17700  Biso   1.000  H
  Zn11     1.0000 0.81151  0.21085  0.82911  Biso   1.000  Zn
  Zn12     1.0000 0.80546  0.20469  0.31433  Biso   1.000  Zn
  N21      1.0000 0.80251  0.26658  0.89650  Biso   1.000  N
  N22      1.0000 0.76638  0.23026  0.75190  Biso   1.000  N
  O61      1.0000 0.88836  0.24677  0.07350  Biso   1.000  O
  N23      1.0000 0.75561  0.21924  0.38830  Biso   1.000  N
  O62      1.0000 0.87946  0.21660  0.79470  Biso   1.000  O
  O63      1.0000 0.90794  0.32658  0.08770  Biso   1.000  O
  C186     1.0000 0.82770  0.27320  0.95060  Biso   1.000  C
  H96      1.0000 0.85460  0.25310  0.96310  Biso   1.000  H
  C187     1.0000 0.91900  0.27940  0.08710  Biso   1.000  C
  C188     1.0000 0.76360  0.20800  0.69500  Biso   1.000  C
  H97      1.0000 0.78430  0.18150  0.68250  Biso   1.000  H
  C189     1.0000 0.75270  0.19760  0.44610  Biso   1.000  C
  H98      1.0000 0.77330  0.17120  0.45930  Biso   1.000  H
  O64      1.0000 0.90450  0.19420  0.89370  Biso   1.000  O
  C190     1.0000 0.91330  0.20590  0.83530  Biso   1.000  C
  C191     1.0000 0.97500  0.21480  0.74550  Biso   1.000  C
  H99      1.0000 0.94760  0.21500  0.71700  Biso   1.000  H
  C192     1.0000 0.98160  0.21520  0.11530  Biso   1.000  C
  H100     1.0000 0.95680  0.19100  0.11030  Biso   1.000  H
  C193     1.0000 0.97190  0.26500  0.10420  Biso   1.000  C
  C194     1.0000 0.03100  0.20200  0.13460  Biso   1.000  C
  H101     1.0000 0.03810  0.16860  0.14390  Biso   1.000  H
  C195     1.0000 0.00860  0.30090  0.10980  Biso   1.000  C
  H102     1.0000 0.00070  0.33430  0.10180  Biso   1.000  H
  C196     1.0000 0.96620  0.21080  0.81110  Biso   1.000  C
  C197     1.0000 0.05830  0.28770  0.12740  Biso   1.000  C
  C198     1.0000 0.02270  0.21850  0.71880  Biso   1.000  C
  C199     1.0000 0.00600  0.20930  0.85490  Biso   1.000  C
  H103     1.0000 0.00100  0.20590  0.90000  Biso   1.000  H
  C200     1.0000 0.13300  0.32980  0.18070  Biso   1.000  C
  H104     1.0000 0.12000  0.31800  0.22300  Biso   1.000  H
  C201     1.0000 0.09710  0.32730  0.13010  Biso   1.000  C
  C202     1.0000 0.09960  0.36240  0.07960  Biso   1.000  C
  H105     1.0000 0.07630  0.36130  0.04550  Biso   1.000  H
  C203     1.0000 0.02700  0.22170  0.64620  Biso   1.000  C
  C204     1.0000 0.04860  0.26230  0.54320  Biso   1.000  C
  H106     1.0000 0.06670  0.28750  0.52200  Biso   1.000  H
  C205     1.0000 0.06830  0.23640  0.14000  Biso   1.000  C
  C206     1.0000 0.06300  0.21780  0.76170  Biso   1.000  C
  O65      1.0000 0.12330  0.19400  0.21600  Biso   1.000  O
  C207     1.0000 0.11940  0.21550  0.16180  Biso   1.000  C
  O66      1.0000 0.15310  0.22130  0.12210  Biso   1.000  O
  C208     1.0000 0.05060  0.25890  0.61420  Biso   1.000  C
  H107     1.0000 0.06850  0.28280  0.63800  Biso   1.000  H
  O67      1.0000 0.86946  0.22010  0.35960  Biso   1.000  O
  O68      1.0000 0.89910  0.20610  0.26020  Biso   1.000  O
  C209     1.0000 0.01410  0.23630  0.43610  Biso   1.000  C
  C210     1.0000 0.90510  0.21830  0.31890  Biso   1.000  C
  C211     1.0000 0.95730  0.23080  0.34530  Biso   1.000  C
  C212     1.0000 0.05290  0.24820  0.39210  Biso   1.000  C
  C213     1.0000 0.96680  0.23040  0.41020  Biso   1.000  C
  H108     1.0000 0.94000  0.22580  0.43910  Biso   1.000  H
  C214     1.0000 0.02240  0.23160  0.50850  Biso   1.000  C
  O69      1.0000 0.13260  0.21940  0.42890  Biso   1.000  O
  C215     1.0000 0.10670  0.25410  0.41330  Biso   1.000  C
  C216     1.0000 0.99410  0.24240  0.30230  Biso   1.000  C
  H109     1.0000 0.98720  0.24440  0.25750  Biso   1.000  H
  C217     1.0000 0.00180  0.18850  0.54100  Biso   1.000  C
  H110     1.0000 0.98740  0.16290  0.51620  Biso   1.000  H
  C218     1.0000 0.04170  0.25130  0.32510  Biso   1.000  C
  H111     1.0000 0.06700  0.25950  0.29540  Biso   1.000  H
  C219     1.0000 0.00320  0.18490  0.60900  Biso   1.000  C
  H112     1.0000 0.98810  0.15770  0.62990  Biso   1.000  H
  C220     1.0000 0.05400  0.21300  0.82800  Biso   1.000  C
  H113     1.0000 0.08140  0.21230  0.85650  Biso   1.000  H
  O70      1.0000 0.12334  0.29910  0.40910  Biso   1.000  O
  O71      1.0000 0.13350  0.19430  0.70330  Biso   1.000  O
  O72      1.0000 0.14350  0.26150  0.75850  Biso   1.000  O
  C221     1.0000 0.11720  0.22220  0.73850  Biso   1.000  C
  N24      1.0000 0.79200  0.25598  0.24410  Biso   1.000  N
  C222     1.0000 0.81780  0.26280  0.18950  Biso   1.000  C
  H114     1.0000 0.84480  0.24280  0.17700  Biso   1.000  H
  Zn13     1.0000 0.21085  0.18849  0.17089  Biso   1.000  Zn
  Zn14     1.0000 0.20469  0.19454  0.68567  Biso   1.000  Zn
  N25      1.0000 0.26658  0.19749  0.10350  Biso   1.000  N
  N26      1.0000 0.23026  0.23362  0.24810  Biso   1.000  N
  O73      1.0000 0.24677  0.11164  0.92650  Biso   1.000  O
  N27      1.0000 0.21924  0.24439  0.61170  Biso   1.000  N
  O74      1.0000 0.21660  0.12054  0.20530  Biso   1.000  O
  O75      1.0000 0.32658  0.09206  0.91230  Biso   1.000  O
  C223     1.0000 0.27320  0.17230  0.04940  Biso   1.000  C
  H115     1.0000 0.25310  0.14540  0.03690  Biso   1.000  H
  C224     1.0000 0.27940  0.08100  0.91290  Biso   1.000  C
  C225     1.0000 0.20800  0.23640  0.30500  Biso   1.000  C
  H116     1.0000 0.18150  0.21570  0.31750  Biso   1.000  H
  C226     1.0000 0.19760  0.24730  0.55390  Biso   1.000  C
  H117     1.0000 0.17120  0.22670  0.54070  Biso   1.000  H
  O76      1.0000 0.19420  0.09550  0.10630  Biso   1.000  O
  C227     1.0000 0.20590  0.08670  0.16470  Biso   1.000  C
  C228     1.0000 0.21480  0.02500  0.25450  Biso   1.000  C
  H118     1.0000 0.21500  0.05240  0.28300  Biso   1.000  H
  C229     1.0000 0.21520  0.01840  0.88470  Biso   1.000  C
  H119     1.0000 0.19100  0.04320  0.88970  Biso   1.000  H
  C230     1.0000 0.26500  0.02810  0.89580  Biso   1.000  C
  C231     1.0000 0.20200  0.96900  0.86540  Biso   1.000  C
  H120     1.0000 0.16860  0.96190  0.85610  Biso   1.000  H
  C232     1.0000 0.30090  0.99140  0.89020  Biso   1.000  C
  H121     1.0000 0.33430  0.99930  0.89820  Biso   1.000  H
  C233     1.0000 0.21080  0.03380  0.18890  Biso   1.000  C
  C234     1.0000 0.28770  0.94170  0.87260  Biso   1.000  C
  C235     1.0000 0.21850  0.97730  0.28120  Biso   1.000  C
  C236     1.0000 0.20930  0.99400  0.14510  Biso   1.000  C
  H122     1.0000 0.20590  0.99900  0.10000  Biso   1.000  H
  C237     1.0000 0.32980  0.86700  0.81930  Biso   1.000  C
  H123     1.0000 0.31800  0.88000  0.77700  Biso   1.000  H
  C238     1.0000 0.32730  0.90290  0.86990  Biso   1.000  C
  C239     1.0000 0.36240  0.90040  0.92040  Biso   1.000  C
  H124     1.0000 0.36130  0.92370  0.95450  Biso   1.000  H
  C240     1.0000 0.22170  0.97300  0.35380  Biso   1.000  C
  C241     1.0000 0.26230  0.95140  0.45680  Biso   1.000  C
  H125     1.0000 0.28750  0.93330  0.47800  Biso   1.000  H
  C242     1.0000 0.23640  0.93170  0.86000  Biso   1.000  C
  C243     1.0000 0.21780  0.93700  0.23830  Biso   1.000  C
  O77      1.0000 0.19400  0.87670  0.78400  Biso   1.000  O
  C244     1.0000 0.21550  0.88060  0.83820  Biso   1.000  C
  O78      1.0000 0.22130  0.84690  0.87790  Biso   1.000  O
  C245     1.0000 0.25890  0.94940  0.38580  Biso   1.000  C
  H126     1.0000 0.28280  0.93150  0.36200  Biso   1.000  H
  O79      1.0000 0.22010  0.13054  0.64040  Biso   1.000  O
  O80      1.0000 0.20610  0.10090  0.73980  Biso   1.000  O
  C246     1.0000 0.23630  0.98590  0.56390  Biso   1.000  C
  C247     1.0000 0.21830  0.09490  0.68110  Biso   1.000  C
  C248     1.0000 0.23080  0.04270  0.65470  Biso   1.000  C
  C249     1.0000 0.24820  0.94710  0.60790  Biso   1.000  C
  C250     1.0000 0.23040  0.03320  0.58980  Biso   1.000  C
  H127     1.0000 0.22580  0.06000  0.56090  Biso   1.000  H
  C251     1.0000 0.23160  0.97760  0.49150  Biso   1.000  C
  O81      1.0000 0.21940  0.86740  0.57110  Biso   1.000  O
  C252     1.0000 0.25410  0.89330  0.58670  Biso   1.000  C
  C253     1.0000 0.24240  0.00590  0.69770  Biso   1.000  C
  H128     1.0000 0.24440  0.01280  0.74250  Biso   1.000  H
  C254     1.0000 0.18850  0.99820  0.45900  Biso   1.000  C
  H129     1.0000 0.16290  0.01260  0.48380  Biso   1.000  H
  C255     1.0000 0.25130  0.95830  0.67490  Biso   1.000  C
  H130     1.0000 0.25950  0.93300  0.70460  Biso   1.000  H
  C256     1.0000 0.18490  0.99680  0.39100  Biso   1.000  C
  H131     1.0000 0.15770  0.01190  0.37010  Biso   1.000  H
  C257     1.0000 0.21300  0.94600  0.17200  Biso   1.000  C
  H132     1.0000 0.21230  0.91860  0.14350  Biso   1.000  H
  O82      1.0000 0.29910  0.87666  0.59090  Biso   1.000  O
  O83      1.0000 0.19430  0.86650  0.29670  Biso   1.000  O
  O84      1.0000 0.26150  0.85650  0.24150  Biso   1.000  O
  C258     1.0000 0.22220  0.88280  0.26150  Biso   1.000  C
  N28      1.0000 0.25598  0.20800  0.75590  Biso   1.000  N
  C259     1.0000 0.26280  0.18220  0.81050  Biso   1.000  C
  H133     1.0000 0.24280  0.15520  0.82300  Biso   1.000  H
  Zn15     1.0000 0.78915  0.81151  0.17089  Biso   1.000  Zn
  Zn16     1.0000 0.79531  0.80546  0.68567  Biso   1.000  Zn
  N29      1.0000 0.73342  0.80251  0.10350  Biso   1.000  N
  N30      1.0000 0.76974  0.76638  0.24810  Biso   1.000  N
  O85      1.0000 0.75323  0.88836  0.92650  Biso   1.000  O
  N31      1.0000 0.78076  0.75561  0.61170  Biso   1.000  N
  O86      1.0000 0.78340  0.87946  0.20530  Biso   1.000  O
  O87      1.0000 0.67342  0.90794  0.91230  Biso   1.000  O
  C260     1.0000 0.72680  0.82770  0.04940  Biso   1.000  C
  H134     1.0000 0.74690  0.85460  0.03690  Biso   1.000  H
  C261     1.0000 0.72060  0.91900  0.91290  Biso   1.000  C
  C262     1.0000 0.79200  0.76360  0.30500  Biso   1.000  C
  H135     1.0000 0.81850  0.78430  0.31750  Biso   1.000  H
  C263     1.0000 0.80240  0.75270  0.55390  Biso   1.000  C
  H136     1.0000 0.82880  0.77330  0.54070  Biso   1.000  H
  O88      1.0000 0.80580  0.90450  0.10630  Biso   1.000  O
  C264     1.0000 0.79410  0.91330  0.16470  Biso   1.000  C
  C265     1.0000 0.78520  0.97500  0.25450  Biso   1.000  C
  H137     1.0000 0.78500  0.94760  0.28300  Biso   1.000  H
  C266     1.0000 0.78480  0.98160  0.88470  Biso   1.000  C
  H138     1.0000 0.80900  0.95680  0.88970  Biso   1.000  H
  C267     1.0000 0.73500  0.97190  0.89580  Biso   1.000  C
  C268     1.0000 0.79800  0.03100  0.86540  Biso   1.000  C
  H139     1.0000 0.83140  0.03810  0.85610  Biso   1.000  H
  C269     1.0000 0.69910  0.00860  0.89020  Biso   1.000  C
  H140     1.0000 0.66570  0.00070  0.89820  Biso   1.000  H
  C270     1.0000 0.78920  0.96620  0.18890  Biso   1.000  C
  C271     1.0000 0.71230  0.05830  0.87260  Biso   1.000  C
  C272     1.0000 0.78150  0.02270  0.28120  Biso   1.000  C
  C273     1.0000 0.79070  0.00600  0.14510  Biso   1.000  C
  H141     1.0000 0.79410  0.00100  0.10000  Biso   1.000  H
  C274     1.0000 0.67020  0.13300  0.81930  Biso   1.000  C
  H142     1.0000 0.68200  0.12000  0.77700  Biso   1.000  H
  C275     1.0000 0.67270  0.09710  0.86990  Biso   1.000  C
  C276     1.0000 0.63760  0.09960  0.92040  Biso   1.000  C
  H143     1.0000 0.63870  0.07630  0.95450  Biso   1.000  H
  C277     1.0000 0.77830  0.02700  0.35380  Biso   1.000  C
  C278     1.0000 0.73770  0.04860  0.45680  Biso   1.000  C
  H144     1.0000 0.71250  0.06670  0.47800  Biso   1.000  H
  C279     1.0000 0.76360  0.06830  0.86000  Biso   1.000  C
  C280     1.0000 0.78220  0.06300  0.23830  Biso   1.000  C
  O89      1.0000 0.80600  0.12330  0.78400  Biso   1.000  O
  C281     1.0000 0.78450  0.11940  0.83820  Biso   1.000  C
  O90      1.0000 0.77870  0.15310  0.87790  Biso   1.000  O
  C282     1.0000 0.74110  0.05060  0.38580  Biso   1.000  C
  H145     1.0000 0.71720  0.06850  0.36200  Biso   1.000  H
  O91      1.0000 0.77990  0.86946  0.64040  Biso   1.000  O
  O92      1.0000 0.79390  0.89910  0.73980  Biso   1.000  O
  C283     1.0000 0.76370  0.01410  0.56390  Biso   1.000  C
  C284     1.0000 0.78170  0.90510  0.68110  Biso   1.000  C
  C285     1.0000 0.76920  0.95730  0.65470  Biso   1.000  C
  C286     1.0000 0.75180  0.05290  0.60790  Biso   1.000  C
  C287     1.0000 0.76960  0.96680  0.58980  Biso   1.000  C
  H146     1.0000 0.77420  0.94000  0.56090  Biso   1.000  H
  C288     1.0000 0.76840  0.02240  0.49150  Biso   1.000  C
  O93      1.0000 0.78060  0.13260  0.57110  Biso   1.000  O
  C289     1.0000 0.74590  0.10670  0.58670  Biso   1.000  C
  C290     1.0000 0.75760  0.99410  0.69770  Biso   1.000  C
  H147     1.0000 0.75560  0.98720  0.74250  Biso   1.000  H
  C291     1.0000 0.81150  0.00180  0.45900  Biso   1.000  C
  H148     1.0000 0.83710  0.98740  0.48380  Biso   1.000  H
  C292     1.0000 0.74870  0.04170  0.67490  Biso   1.000  C
  H149     1.0000 0.74050  0.06700  0.70460  Biso   1.000  H
  C293     1.0000 0.81510  0.00320  0.39100  Biso   1.000  C
  H150     1.0000 0.84230  0.98810  0.37010  Biso   1.000  H
  C294     1.0000 0.78700  0.05400  0.17200  Biso   1.000  C
  H151     1.0000 0.78770  0.08140  0.14350  Biso   1.000  H
  O94      1.0000 0.70090  0.12334  0.59090  Biso   1.000  O
  O95      1.0000 0.80570  0.13350  0.29670  Biso   1.000  O
  O96      1.0000 0.73850  0.14350  0.24150  Biso   1.000  O
  C295     1.0000 0.77780  0.11720  0.26150  Biso   1.000  C
  N32      1.0000 0.74402  0.79200  0.75590  Biso   1.000  N
  C296     1.0000 0.73720  0.81780  0.81050  Biso   1.000  C
  H152     1.0000 0.75720  0.84480  0.82300  Biso   1.000  H
  Zn17     1.0000 0.33431  0.16569  0.92447  Biso   1.000  Zn
  Zn18     1.0000 0.19605  0.30395  0.42489  Biso   1.000  Zn
  N33      1.0000 0.31125  0.18875  0.01400  Biso   1.000  N
  N34      1.0000 0.21730  0.28270  0.51630  Biso   1.000  N
  N35      1.0000 0.22760  0.27240  0.34380  Biso   1.000  N
  N36      1.0000 0.30120  0.19880  0.84560  Biso   1.000  N
  Zn19     1.0000 0.66569  0.83431  0.92447  Biso   1.000  Zn
  Zn20     1.0000 0.80395  0.69605  0.42489  Biso   1.000  Zn
  N37      1.0000 0.68875  0.81125  0.01400  Biso   1.000  N
  N38      1.0000 0.78270  0.71730  0.51630  Biso   1.000  N
  N39      1.0000 0.77240  0.72760  0.34380  Biso   1.000  N
  N40      1.0000 0.69880  0.80120  0.84560  Biso   1.000  N
  Zn21     1.0000 0.16569  0.66569  0.07553  Biso   1.000  Zn
  Zn22     1.0000 0.30395  0.80395  0.57511  Biso   1.000  Zn
  N41      1.0000 0.18875  0.68875  0.98600  Biso   1.000  N
  N42      1.0000 0.28270  0.78270  0.48370  Biso   1.000  N
  N43      1.0000 0.27240  0.77240  0.65620  Biso   1.000  N
  N44      1.0000 0.19880  0.69880  0.15440  Biso   1.000  N
  Zn23     1.0000 0.83431  0.33431  0.07553  Biso   1.000  Zn
  Zn24     1.0000 0.69605  0.19605  0.57511  Biso   1.000  Zn
  N45      1.0000 0.81125  0.31125  0.98600  Biso   1.000  N
  N46      1.0000 0.71730  0.21730  0.48370  Biso   1.000  N
  N47      1.0000 0.72760  0.22760  0.65620  Biso   1.000  N
  N48      1.0000 0.80120  0.30120  0.15440  Biso   1.000  N
