data_image0
_cell_length_a       27.545
_cell_length_b       27.545
_cell_length_c       13.555
_cell_angle_alpha    90
_cell_angle_beta     90
_cell_angle_gamma    120

_symmetry_space_group_name_H-M    "P 1"
_symmetry_int_tables_number       1

loop_
  _symmetry_equiv_pos_as_xyz
  'x, y, z'

loop_
  _atom_site_label
  _atom_site_occupancy
  _atom_site_fract_x
  _atom_site_fract_y
  _atom_site_fract_z
  _atom_site_thermal_displace_type
  _atom_site_B_iso_or_equiv
  _atom_site_type_symbol
  Cu1      1.0000 0.58018  0.26201  0.29806  Biso   1.000  Cu
  S1       1.0000 0.58902  0.25960  0.46527  Biso   1.000  S
  N1       1.0000 0.55400  0.18960  0.22240  Biso   1.000  N
  N2       1.0000 0.52110  0.28790  0.27930  Biso   1.000  N
  N3       1.0000 0.52050  0.05070  0.95460  Biso   1.000  N
  N4       1.0000 0.49050  0.99570  0.09790  Biso   1.000  N
  N5       1.0000 0.41110  0.37750  0.16490  Biso   1.000  N
  N6       1.0000 0.40870  0.37960  0.33380  Biso   1.000  N
  C1       1.0000 0.55990  0.19250  0.12450  Biso   1.000  C
  H1       1.0000 0.57370  0.22710  0.09400  Biso   1.000  H
  C2       1.0000 0.54630  0.14620  0.06660  Biso   1.000  C
  H2       1.0000 0.55100  0.14980  0.99860  Biso   1.000  H
  C3       1.0000 0.52560  0.09450  0.11100  Biso   1.000  C
  C4       1.0000 0.51860  0.09060  0.21210  Biso   1.000  C
  H3       1.0000 0.50460  0.05620  0.24370  Biso   1.000  H
  C5       1.0000 0.53320  0.13980  0.26690  Biso   1.000  C
  H4       1.0000 0.52810  0.13740  0.33490  Biso   1.000  H
  C6       1.0000 0.51190  0.04430  0.05050  Biso   1.000  C
  C7       1.0000 0.50880  0.30260  0.19690  Biso   1.000  C
  H5       1.0000 0.52290  0.29600  0.13920  Biso   1.000  H
  C8       1.0000 0.47610  0.32740  0.18810  Biso   1.000  C
  H6       1.0000 0.47140  0.33860  0.12570  Biso   1.000  H
  C9       1.0000 0.45250  0.33560  0.25960  Biso   1.000  C
  C10      1.0000 0.46650  0.32570  0.34570  Biso   1.000  C
  H7       1.0000 0.45520  0.33650  0.40230  Biso   1.000  H
  C11      1.0000 0.49930  0.29860  0.35530  Biso   1.000  C
  H8       1.0000 0.50500  0.28850  0.41780  Biso   1.000  H
  C12      1.0000 0.42160  0.36410  0.25420  Biso   1.000  C
  Cu2      1.0000 0.73799  0.31817  0.29806  Biso   1.000  Cu
  S2       1.0000 0.74040  0.32942  0.46527  Biso   1.000  S
  N7       1.0000 0.81040  0.36440  0.22240  Biso   1.000  N
  N8       1.0000 0.71210  0.23320  0.27930  Biso   1.000  N
  N9       1.0000 0.94930  0.46980  0.95460  Biso   1.000  N
  N10      1.0000 0.00430  0.49480  0.09790  Biso   1.000  N
  N11      1.0000 0.62250  0.03360  0.16490  Biso   1.000  N
  N12      1.0000 0.62040  0.02910  0.33380  Biso   1.000  N
  C13      1.0000 0.80750  0.36740  0.12450  Biso   1.000  C
  H9       1.0000 0.77290  0.34660  0.09400  Biso   1.000  H
  C14      1.0000 0.85380  0.40010  0.06660  Biso   1.000  C
  H10      1.0000 0.85020  0.40120  0.99860  Biso   1.000  H
  C15      1.0000 0.90550  0.43110  0.11100  Biso   1.000  C
  C16      1.0000 0.90940  0.42800  0.21210  Biso   1.000  C
  H11      1.0000 0.94380  0.44840  0.24370  Biso   1.000  H
  C17      1.0000 0.86020  0.39340  0.26690  Biso   1.000  C
  H12      1.0000 0.86260  0.39070  0.33490  Biso   1.000  H
  C18      1.0000 0.95570  0.46760  0.05050  Biso   1.000  C
  C19      1.0000 0.69740  0.20620  0.19690  Biso   1.000  C
  H13      1.0000 0.70400  0.22690  0.13920  Biso   1.000  H
  C20      1.0000 0.67260  0.14870  0.18810  Biso   1.000  C
  H14      1.0000 0.66140  0.13280  0.12570  Biso   1.000  H
  C21      1.0000 0.66440  0.11690  0.25960  Biso   1.000  C
  C22      1.0000 0.67430  0.14080  0.34570  Biso   1.000  C
  H15      1.0000 0.66350  0.11870  0.40230  Biso   1.000  H
  C23      1.0000 0.70140  0.20070  0.35530  Biso   1.000  C
  H16      1.0000 0.71150  0.21650  0.41780  Biso   1.000  H
  C24      1.0000 0.63590  0.05750  0.25420  Biso   1.000  C
  Cu3      1.0000 0.68183  0.41982  0.29806  Biso   1.000  Cu
  S3       1.0000 0.67058  0.41098  0.46527  Biso   1.000  S
  N13      1.0000 0.63560  0.44600  0.22240  Biso   1.000  N
  N14      1.0000 0.76680  0.47890  0.27930  Biso   1.000  N
  N15      1.0000 0.53020  0.47950  0.95460  Biso   1.000  N
  N16      1.0000 0.50520  0.50950  0.09790  Biso   1.000  N
  N17      1.0000 0.96640  0.58890  0.16490  Biso   1.000  N
  N18      1.0000 0.97090  0.59130  0.33380  Biso   1.000  N
  C25      1.0000 0.63260  0.44010  0.12450  Biso   1.000  C
  H17      1.0000 0.65340  0.42630  0.09400  Biso   1.000  H
  C26      1.0000 0.59990  0.45370  0.06660  Biso   1.000  C
  H18      1.0000 0.59880  0.44900  0.99860  Biso   1.000  H
  C27      1.0000 0.56890  0.47440  0.11100  Biso   1.000  C
  C28      1.0000 0.57200  0.48140  0.21210  Biso   1.000  C
  H19      1.0000 0.55160  0.49540  0.24370  Biso   1.000  H
  C29      1.0000 0.60660  0.46680  0.26690  Biso   1.000  C
  H20      1.0000 0.60930  0.47190  0.33490  Biso   1.000  H
  C30      1.0000 0.53240  0.48810  0.05050  Biso   1.000  C
  C31      1.0000 0.79380  0.49120  0.19690  Biso   1.000  C
  H21      1.0000 0.77310  0.47710  0.13920  Biso   1.000  H
  C32      1.0000 0.85130  0.52390  0.18810  Biso   1.000  C
  H22      1.0000 0.86720  0.52860  0.12570  Biso   1.000  H
  C33      1.0000 0.88310  0.54750  0.25960  Biso   1.000  C
  C34      1.0000 0.85920  0.53350  0.34570  Biso   1.000  C
  H23      1.0000 0.88130  0.54480  0.40230  Biso   1.000  H
  C35      1.0000 0.79930  0.50070  0.35530  Biso   1.000  C
  H24      1.0000 0.78350  0.49500  0.41780  Biso   1.000  H
  C36      1.0000 0.94250  0.57840  0.25420  Biso   1.000  C
  Cu4      1.0000 0.26201  0.58018  0.20194  Biso   1.000  Cu
  S4       1.0000 0.25960  0.58902  0.03473  Biso   1.000  S
  N19      1.0000 0.18960  0.55400  0.27760  Biso   1.000  N
  N20      1.0000 0.28790  0.52110  0.22070  Biso   1.000  N
  N21      1.0000 0.05070  0.52050  0.54540  Biso   1.000  N
  N22      1.0000 0.99570  0.49050  0.40210  Biso   1.000  N
  N23      1.0000 0.37750  0.41110  0.33510  Biso   1.000  N
  N24      1.0000 0.37960  0.40870  0.16620  Biso   1.000  N
  C37      1.0000 0.19250  0.55990  0.37550  Biso   1.000  C
  H25      1.0000 0.22710  0.57370  0.40600  Biso   1.000  H
  C38      1.0000 0.14620  0.54630  0.43340  Biso   1.000  C
  H26      1.0000 0.14980  0.55100  0.50140  Biso   1.000  H
  C39      1.0000 0.09450  0.52560  0.38900  Biso   1.000  C
  C40      1.0000 0.09060  0.51860  0.28790  Biso   1.000  C
  H27      1.0000 0.05620  0.50460  0.25630  Biso   1.000  H
  C41      1.0000 0.13980  0.53320  0.23310  Biso   1.000  C
  H28      1.0000 0.13740  0.52810  0.16510  Biso   1.000  H
  C42      1.0000 0.04430  0.51190  0.44950  Biso   1.000  C
  C43      1.0000 0.30260  0.50880  0.30310  Biso   1.000  C
  H29      1.0000 0.29600  0.52290  0.36080  Biso   1.000  H
  C44      1.0000 0.32740  0.47610  0.31190  Biso   1.000  C
  H30      1.0000 0.33860  0.47140  0.37430  Biso   1.000  H
  C45      1.0000 0.33560  0.45250  0.24040  Biso   1.000  C
  C46      1.0000 0.32570  0.46650  0.15430  Biso   1.000  C
  H31      1.0000 0.33650  0.45520  0.09770  Biso   1.000  H
  C47      1.0000 0.29860  0.49930  0.14470  Biso   1.000  C
  H32      1.0000 0.28850  0.50500  0.08220  Biso   1.000  H
  C48      1.0000 0.36410  0.42160  0.24580  Biso   1.000  C
  Cu5      1.0000 0.31817  0.73799  0.20194  Biso   1.000  Cu
  S5       1.0000 0.32942  0.74040  0.03473  Biso   1.000  S
  N25      1.0000 0.36440  0.81040  0.27760  Biso   1.000  N
  N26      1.0000 0.23320  0.71210  0.22070  Biso   1.000  N
  N27      1.0000 0.46980  0.94930  0.54540  Biso   1.000  N
  N28      1.0000 0.49480  0.00430  0.40210  Biso   1.000  N
  N29      1.0000 0.03360  0.62250  0.33510  Biso   1.000  N
  N30      1.0000 0.02910  0.62040  0.16620  Biso   1.000  N
  C49      1.0000 0.36740  0.80750  0.37550  Biso   1.000  C
  H33      1.0000 0.34660  0.77290  0.40600  Biso   1.000  H
  C50      1.0000 0.40010  0.85380  0.43340  Biso   1.000  C
  H34      1.0000 0.40120  0.85020  0.50140  Biso   1.000  H
  C51      1.0000 0.43110  0.90550  0.38900  Biso   1.000  C
  C52      1.0000 0.42800  0.90940  0.28790  Biso   1.000  C
  H35      1.0000 0.44840  0.94380  0.25630  Biso   1.000  H
  C53      1.0000 0.39340  0.86020  0.23310  Biso   1.000  C
  H36      1.0000 0.39070  0.86260  0.16510  Biso   1.000  H
  C54      1.0000 0.46760  0.95570  0.44950  Biso   1.000  C
  C55      1.0000 0.20620  0.69740  0.30310  Biso   1.000  C
  H37      1.0000 0.22690  0.70400  0.36080  Biso   1.000  H
  C56      1.0000 0.14870  0.67260  0.31190  Biso   1.000  C
  H38      1.0000 0.13280  0.66140  0.37430  Biso   1.000  H
  C57      1.0000 0.11690  0.66440  0.24040  Biso   1.000  C
  C58      1.0000 0.14080  0.67430  0.15430  Biso   1.000  C
  H39      1.0000 0.11870  0.66350  0.09770  Biso   1.000  H
  C59      1.0000 0.20070  0.70140  0.14470  Biso   1.000  C
  H40      1.0000 0.21650  0.71150  0.08220  Biso   1.000  H
  C60      1.0000 0.05750  0.63590  0.24580  Biso   1.000  C
  Cu6      1.0000 0.41982  0.68183  0.20194  Biso   1.000  Cu
  S6       1.0000 0.41098  0.67058  0.03473  Biso   1.000  S
  N31      1.0000 0.44600  0.63560  0.27760  Biso   1.000  N
  N32      1.0000 0.47890  0.76680  0.22070  Biso   1.000  N
  N33      1.0000 0.47950  0.53020  0.54540  Biso   1.000  N
  N34      1.0000 0.50950  0.50520  0.40210  Biso   1.000  N
  N35      1.0000 0.58890  0.96640  0.33510  Biso   1.000  N
  N36      1.0000 0.59130  0.97090  0.16620  Biso   1.000  N
  C61      1.0000 0.44010  0.63260  0.37550  Biso   1.000  C
  H41      1.0000 0.42630  0.65340  0.40600  Biso   1.000  H
  C62      1.0000 0.45370  0.59990  0.43340  Biso   1.000  C
  H42      1.0000 0.44900  0.59880  0.50140  Biso   1.000  H
  C63      1.0000 0.47440  0.56890  0.38900  Biso   1.000  C
  C64      1.0000 0.48140  0.57200  0.28790  Biso   1.000  C
  H43      1.0000 0.49540  0.55160  0.25630  Biso   1.000  H
  C65      1.0000 0.46680  0.60660  0.23310  Biso   1.000  C
  H44      1.0000 0.47190  0.60930  0.16510  Biso   1.000  H
  C66      1.0000 0.48810  0.53240  0.44950  Biso   1.000  C
  C67      1.0000 0.49120  0.79380  0.30310  Biso   1.000  C
  H45      1.0000 0.47710  0.77310  0.36080  Biso   1.000  H
  C68      1.0000 0.52390  0.85130  0.31190  Biso   1.000  C
  H46      1.0000 0.52860  0.86720  0.37430  Biso   1.000  H
  C69      1.0000 0.54750  0.88310  0.24040  Biso   1.000  C
  C70      1.0000 0.53350  0.85920  0.15430  Biso   1.000  C
  H47      1.0000 0.54480  0.88130  0.09770  Biso   1.000  H
  C71      1.0000 0.50070  0.79930  0.14470  Biso   1.000  C
  H48      1.0000 0.49500  0.78350  0.08220  Biso   1.000  H
  C72      1.0000 0.57840  0.94250  0.24580  Biso   1.000  C
  Cu7      1.0000 0.41982  0.73799  0.70194  Biso   1.000  Cu
  S7       1.0000 0.41098  0.74040  0.53473  Biso   1.000  S
  N37      1.0000 0.44600  0.81040  0.77760  Biso   1.000  N
  N38      1.0000 0.47890  0.71210  0.72070  Biso   1.000  N
  N39      1.0000 0.47950  0.94930  0.04540  Biso   1.000  N
  N40      1.0000 0.50950  0.00430  0.90210  Biso   1.000  N
  N41      1.0000 0.58890  0.62250  0.83510  Biso   1.000  N
  N42      1.0000 0.59130  0.62040  0.66620  Biso   1.000  N
  C73      1.0000 0.44010  0.80750  0.87550  Biso   1.000  C
  H49      1.0000 0.42630  0.77290  0.90600  Biso   1.000  H
  C74      1.0000 0.45370  0.85380  0.93340  Biso   1.000  C
  H50      1.0000 0.44900  0.85020  0.00140  Biso   1.000  H
  C75      1.0000 0.47440  0.90550  0.88900  Biso   1.000  C
  C76      1.0000 0.48140  0.90940  0.78790  Biso   1.000  C
  H51      1.0000 0.49540  0.94380  0.75630  Biso   1.000  H
  C77      1.0000 0.46680  0.86020  0.73310  Biso   1.000  C
  H52      1.0000 0.47190  0.86260  0.66510  Biso   1.000  H
  C78      1.0000 0.48810  0.95570  0.94950  Biso   1.000  C
  C79      1.0000 0.49120  0.69740  0.80310  Biso   1.000  C
  H53      1.0000 0.47710  0.70400  0.86080  Biso   1.000  H
  C80      1.0000 0.52390  0.67260  0.81190  Biso   1.000  C
  H54      1.0000 0.52860  0.66140  0.87430  Biso   1.000  H
  C81      1.0000 0.54750  0.66440  0.74040  Biso   1.000  C
  C82      1.0000 0.53350  0.67430  0.65430  Biso   1.000  C
  H55      1.0000 0.54480  0.66350  0.59770  Biso   1.000  H
  C83      1.0000 0.50070  0.70140  0.64470  Biso   1.000  C
  H56      1.0000 0.49500  0.71150  0.58220  Biso   1.000  H
  C84      1.0000 0.57840  0.63590  0.74580  Biso   1.000  C
  Cu8      1.0000 0.26201  0.68183  0.70194  Biso   1.000  Cu
  S8       1.0000 0.25960  0.67058  0.53473  Biso   1.000  S
  N43      1.0000 0.18960  0.63560  0.77760  Biso   1.000  N
  N44      1.0000 0.28790  0.76680  0.72070  Biso   1.000  N
  N45      1.0000 0.05070  0.53020  0.04540  Biso   1.000  N
  N46      1.0000 0.99570  0.50520  0.90210  Biso   1.000  N
  N47      1.0000 0.37750  0.96640  0.83510  Biso   1.000  N
  N48      1.0000 0.37960  0.97090  0.66620  Biso   1.000  N
  C85      1.0000 0.19250  0.63260  0.87550  Biso   1.000  C
  H57      1.0000 0.22710  0.65340  0.90600  Biso   1.000  H
  C86      1.0000 0.14620  0.59990  0.93340  Biso   1.000  C
  H58      1.0000 0.14980  0.59880  0.00140  Biso   1.000  H
  C87      1.0000 0.09450  0.56890  0.88900  Biso   1.000  C
  C88      1.0000 0.09060  0.57200  0.78790  Biso   1.000  C
  H59      1.0000 0.05620  0.55160  0.75630  Biso   1.000  H
  C89      1.0000 0.13980  0.60660  0.73310  Biso   1.000  C
  H60      1.0000 0.13740  0.60930  0.66510  Biso   1.000  H
  C90      1.0000 0.04430  0.53240  0.94950  Biso   1.000  C
  C91      1.0000 0.30260  0.79380  0.80310  Biso   1.000  C
  H61      1.0000 0.29600  0.77310  0.86080  Biso   1.000  H
  C92      1.0000 0.32740  0.85130  0.81190  Biso   1.000  C
  H62      1.0000 0.33860  0.86720  0.87430  Biso   1.000  H
  C93      1.0000 0.33560  0.88310  0.74040  Biso   1.000  C
  C94      1.0000 0.32570  0.85920  0.65430  Biso   1.000  C
  H63      1.0000 0.33650  0.88130  0.59770  Biso   1.000  H
  C95      1.0000 0.29860  0.79930  0.64470  Biso   1.000  C
  H64      1.0000 0.28850  0.78350  0.58220  Biso   1.000  H
  C96      1.0000 0.36410  0.94250  0.74580  Biso   1.000  C
  Cu9      1.0000 0.31817  0.58018  0.70194  Biso   1.000  Cu
  S9       1.0000 0.32942  0.58902  0.53473  Biso   1.000  S
  N49      1.0000 0.36440  0.55400  0.77760  Biso   1.000  N
  N50      1.0000 0.23320  0.52110  0.72070  Biso   1.000  N
  N51      1.0000 0.46980  0.52050  0.04540  Biso   1.000  N
  N52      1.0000 0.49480  0.49050  0.90210  Biso   1.000  N
  N53      1.0000 0.03360  0.41110  0.83510  Biso   1.000  N
  N54      1.0000 0.02910  0.40870  0.66620  Biso   1.000  N
  C97      1.0000 0.36740  0.55990  0.87550  Biso   1.000  C
  H65      1.0000 0.34660  0.57370  0.90600  Biso   1.000  H
  C98      1.0000 0.40010  0.54630  0.93340  Biso   1.000  C
  H66      1.0000 0.40120  0.55100  0.00140  Biso   1.000  H
  C99      1.0000 0.43110  0.52560  0.88900  Biso   1.000  C
  C100     1.0000 0.42800  0.51860  0.78790  Biso   1.000  C
  H67      1.0000 0.44840  0.50460  0.75630  Biso   1.000  H
  C101     1.0000 0.39340  0.53320  0.73310  Biso   1.000  C
  H68      1.0000 0.39070  0.52810  0.66510  Biso   1.000  H
  C102     1.0000 0.46760  0.51190  0.94950  Biso   1.000  C
  C103     1.0000 0.20620  0.50880  0.80310  Biso   1.000  C
  H69      1.0000 0.22690  0.52290  0.86080  Biso   1.000  H
  C104     1.0000 0.14870  0.47610  0.81190  Biso   1.000  C
  H70      1.0000 0.13280  0.47140  0.87430  Biso   1.000  H
  C105     1.0000 0.11690  0.45250  0.74040  Biso   1.000  C
  C106     1.0000 0.14080  0.46650  0.65430  Biso   1.000  C
  H71      1.0000 0.11870  0.45520  0.59770  Biso   1.000  H
  C107     1.0000 0.20070  0.49930  0.64470  Biso   1.000  C
  H72      1.0000 0.21650  0.50500  0.58220  Biso   1.000  H
  C108     1.0000 0.05750  0.42160  0.74580  Biso   1.000  C
  Cu10     1.0000 0.73799  0.41982  0.79806  Biso   1.000  Cu
  S10      1.0000 0.74040  0.41098  0.96527  Biso   1.000  S
  N55      1.0000 0.81040  0.44600  0.72240  Biso   1.000  N
  N56      1.0000 0.71210  0.47890  0.77930  Biso   1.000  N
  N57      1.0000 0.94930  0.47950  0.45460  Biso   1.000  N
  N58      1.0000 0.00430  0.50950  0.59790  Biso   1.000  N
  N59      1.0000 0.62250  0.58890  0.66490  Biso   1.000  N
  N60      1.0000 0.62040  0.59130  0.83380  Biso   1.000  N
  C109     1.0000 0.80750  0.44010  0.62450  Biso   1.000  C
  H73      1.0000 0.77290  0.42630  0.59400  Biso   1.000  H
  C110     1.0000 0.85380  0.45370  0.56660  Biso   1.000  C
  H74      1.0000 0.85020  0.44900  0.49860  Biso   1.000  H
  C111     1.0000 0.90550  0.47440  0.61100  Biso   1.000  C
  C112     1.0000 0.90940  0.48140  0.71210  Biso   1.000  C
  H75      1.0000 0.94380  0.49540  0.74370  Biso   1.000  H
  C113     1.0000 0.86020  0.46680  0.76690  Biso   1.000  C
  H76      1.0000 0.86260  0.47190  0.83490  Biso   1.000  H
  C114     1.0000 0.95570  0.48810  0.55050  Biso   1.000  C
  C115     1.0000 0.69740  0.49120  0.69690  Biso   1.000  C
  H77      1.0000 0.70400  0.47710  0.63920  Biso   1.000  H
  C116     1.0000 0.67260  0.52390  0.68810  Biso   1.000  C
  H78      1.0000 0.66140  0.52860  0.62570  Biso   1.000  H
  C117     1.0000 0.66440  0.54750  0.75960  Biso   1.000  C
  C118     1.0000 0.67430  0.53350  0.84570  Biso   1.000  C
  H79      1.0000 0.66350  0.54480  0.90230  Biso   1.000  H
  C119     1.0000 0.70140  0.50070  0.85530  Biso   1.000  C
  H80      1.0000 0.71150  0.49500  0.91780  Biso   1.000  H
  C120     1.0000 0.63590  0.57840  0.75420  Biso   1.000  C
  Cu11     1.0000 0.68183  0.26201  0.79806  Biso   1.000  Cu
  S11      1.0000 0.67058  0.25960  0.96527  Biso   1.000  S
  N61      1.0000 0.63560  0.18960  0.72240  Biso   1.000  N
  N62      1.0000 0.76680  0.28790  0.77930  Biso   1.000  N
  N63      1.0000 0.53020  0.05070  0.45460  Biso   1.000  N
  N64      1.0000 0.50520  0.99570  0.59790  Biso   1.000  N
  N65      1.0000 0.96640  0.37750  0.66490  Biso   1.000  N
  N66      1.0000 0.97090  0.37960  0.83380  Biso   1.000  N
  C121     1.0000 0.63260  0.19250  0.62450  Biso   1.000  C
  H81      1.0000 0.65340  0.22710  0.59400  Biso   1.000  H
  C122     1.0000 0.59990  0.14620  0.56660  Biso   1.000  C
  H82      1.0000 0.59880  0.14980  0.49860  Biso   1.000  H
  C123     1.0000 0.56890  0.09450  0.61100  Biso   1.000  C
  C124     1.0000 0.57200  0.09060  0.71210  Biso   1.000  C
  H83      1.0000 0.55160  0.05620  0.74370  Biso   1.000  H
  C125     1.0000 0.60660  0.13980  0.76690  Biso   1.000  C
  H84      1.0000 0.60930  0.13740  0.83490  Biso   1.000  H
  C126     1.0000 0.53240  0.04430  0.55050  Biso   1.000  C
  C127     1.0000 0.79380  0.30260  0.69690  Biso   1.000  C
  H85      1.0000 0.77310  0.29600  0.63920  Biso   1.000  H
  C128     1.0000 0.85130  0.32740  0.68810  Biso   1.000  C
  H86      1.0000 0.86720  0.33860  0.62570  Biso   1.000  H
  C129     1.0000 0.88310  0.33560  0.75960  Biso   1.000  C
  C130     1.0000 0.85920  0.32570  0.84570  Biso   1.000  C
  H87      1.0000 0.88130  0.33650  0.90230  Biso   1.000  H
  C131     1.0000 0.79930  0.29860  0.85530  Biso   1.000  C
  H88      1.0000 0.78350  0.28850  0.91780  Biso   1.000  H
  C132     1.0000 0.94250  0.36410  0.75420  Biso   1.000  C
  Cu12     1.0000 0.58018  0.31817  0.79806  Biso   1.000  Cu
  S12      1.0000 0.58902  0.32942  0.96527  Biso   1.000  S
  N67      1.0000 0.55400  0.36440  0.72240  Biso   1.000  N
  N68      1.0000 0.52110  0.23320  0.77930  Biso   1.000  N
  N69      1.0000 0.52050  0.46980  0.45460  Biso   1.000  N
  N70      1.0000 0.49050  0.49480  0.59790  Biso   1.000  N
  N71      1.0000 0.41110  0.03360  0.66490  Biso   1.000  N
  N72      1.0000 0.40870  0.02910  0.83380  Biso   1.000  N
  C133     1.0000 0.55990  0.36740  0.62450  Biso   1.000  C
  H89      1.0000 0.57370  0.34660  0.59400  Biso   1.000  H
  C134     1.0000 0.54630  0.40010  0.56660  Biso   1.000  C
  H90      1.0000 0.55100  0.40120  0.49860  Biso   1.000  H
  C135     1.0000 0.52560  0.43110  0.61100  Biso   1.000  C
  C136     1.0000 0.51860  0.42800  0.71210  Biso   1.000  C
  H91      1.0000 0.50460  0.44840  0.74370  Biso   1.000  H
  C137     1.0000 0.53320  0.39340  0.76690  Biso   1.000  C
  H92      1.0000 0.52810  0.39070  0.83490  Biso   1.000  H
  C138     1.0000 0.51190  0.46760  0.55050  Biso   1.000  C
  C139     1.0000 0.50880  0.20620  0.69690  Biso   1.000  C
  H93      1.0000 0.52290  0.22690  0.63920  Biso   1.000  H
  C140     1.0000 0.47610  0.14870  0.68810  Biso   1.000  C
  H94      1.0000 0.47140  0.13280  0.62570  Biso   1.000  H
  C141     1.0000 0.45250  0.11690  0.75960  Biso   1.000  C
  C142     1.0000 0.46650  0.14080  0.84570  Biso   1.000  C
  H95      1.0000 0.45520  0.11870  0.90230  Biso   1.000  H
  C143     1.0000 0.49930  0.20070  0.85530  Biso   1.000  C
  H96      1.0000 0.50500  0.21650  0.91780  Biso   1.000  H
  C144     1.0000 0.42160  0.05750  0.75420  Biso   1.000  C
  W1       1.0000 0.66667  0.33333  0.41305  Biso   1.000  W
  S13      1.0000 0.66667  0.33333  0.24370  Biso   1.000  S
  W2       1.0000 0.33333  0.66667  0.08695  Biso   1.000  W
  S14      1.0000 0.33333  0.66667  0.25630  Biso   1.000  S
  W3       1.0000 0.33333  0.66667  0.58695  Biso   1.000  W
  S15      1.0000 0.33333  0.66667  0.75630  Biso   1.000  S
  W4       1.0000 0.66667  0.33333  0.91305  Biso   1.000  W
  S16      1.0000 0.66667  0.33333  0.74370  Biso   1.000  S
