data_image0
_cell_length_a       20.9473
_cell_length_b       13.3532
_cell_length_c       11.1554
_cell_angle_alpha    90
_cell_angle_beta     90
_cell_angle_gamma    90

_symmetry_space_group_name_H-M    "P 1"
_symmetry_int_tables_number       1

loop_
  _symmetry_equiv_pos_as_xyz
  'x, y, z'

loop_
  _atom_site_label
  _atom_site_occupancy
  _atom_site_fract_x
  _atom_site_fract_y
  _atom_site_fract_z
  _atom_site_thermal_displace_type
  _atom_site_B_iso_or_equiv
  _atom_site_type_symbol
  C1       1.0000 0.26120  0.71460  0.04640  Biso   1.000  C
  H1       1.0000 0.21450  0.72570  0.04440  Biso   1.000  H
  H2       1.0000 0.27990  0.76280  0.10400  Biso   1.000  H
  C2       1.0000 0.26490  0.62600  0.81890  Biso   1.000  C
  H3       1.0000 0.28550  0.62090  0.73920  Biso   1.000  H
  H4       1.0000 0.21830  0.63250  0.80630  Biso   1.000  H
  C3       1.0000 0.37700  0.69360  0.92700  Biso   1.000  C
  H5       1.0000 0.39860  0.74130  0.98160  Biso   1.000  H
  H6       1.0000 0.40160  0.69120  0.85120  Biso   1.000  H
  C4       1.0000 0.34340  0.59380  0.09900  Biso   1.000  C
  H7       1.0000 0.35030  0.52840  0.13890  Biso   1.000  H
  H8       1.0000 0.36240  0.64630  0.15040  Biso   1.000  H
  C5       1.0000 0.24690  0.53680  0.00790  Biso   1.000  C
  H9       1.0000 0.25030  0.47030  0.04660  Biso   1.000  H
  H10      1.0000 0.20100  0.55150  0.99650  Biso   1.000  H
  C6       1.0000 0.34710  0.51710  0.90490  Biso   1.000  C
  H11      1.0000 0.35450  0.45020  0.94050  Biso   1.000  H
  H12      1.0000 0.36820  0.51840  0.82550  Biso   1.000  H
  N1       1.0000 0.27410  0.61200  0.08830  Biso   1.000  N
  N2       1.0000 0.27810  0.53180  0.88850  Biso   1.000  N
  N3       1.0000 0.37660  0.59340  0.98220  Biso   1.000  N
  P1       1.0000 0.29462  0.73876  0.89568  Biso   1.000  P
  Ag1      1.0000 0.27785  0.89144  0.79021  Biso   1.000  Ag
  C7       1.0000 0.73880  0.28540  0.95360  Biso   1.000  C
  H13      1.0000 0.78550  0.27430  0.95560  Biso   1.000  H
  H14      1.0000 0.72010  0.23720  0.89600  Biso   1.000  H
  C8       1.0000 0.73510  0.37400  0.18110  Biso   1.000  C
  H15      1.0000 0.71450  0.37910  0.26080  Biso   1.000  H
  H16      1.0000 0.78170  0.36750  0.19370  Biso   1.000  H
  C9       1.0000 0.62300  0.30640  0.07300  Biso   1.000  C
  H17      1.0000 0.60140  0.25870  0.01840  Biso   1.000  H
  H18      1.0000 0.59840  0.30880  0.14880  Biso   1.000  H
  C10      1.0000 0.65660  0.40620  0.90100  Biso   1.000  C
  H19      1.0000 0.64970  0.47160  0.86110  Biso   1.000  H
  H20      1.0000 0.63760  0.35370  0.84960  Biso   1.000  H
  C11      1.0000 0.75310  0.46320  0.99210  Biso   1.000  C
  H21      1.0000 0.74970  0.52970  0.95340  Biso   1.000  H
  H22      1.0000 0.79900  0.44850  0.00350  Biso   1.000  H
  C12      1.0000 0.65290  0.48290  0.09510  Biso   1.000  C
  H23      1.0000 0.64550  0.54980  0.05950  Biso   1.000  H
  H24      1.0000 0.63180  0.48160  0.17450  Biso   1.000  H
  N4       1.0000 0.72590  0.38800  0.91170  Biso   1.000  N
  N5       1.0000 0.72190  0.46820  0.11150  Biso   1.000  N
  N6       1.0000 0.62340  0.40660  0.01780  Biso   1.000  N
  P2       1.0000 0.70538  0.26124  0.10432  Biso   1.000  P
  Ag2      1.0000 0.72215  0.10856  0.20979  Biso   1.000  Ag
  C13      1.0000 0.23880  0.78540  0.54640  Biso   1.000  C
  H25      1.0000 0.28550  0.77430  0.54440  Biso   1.000  H
  H26      1.0000 0.22010  0.73720  0.60400  Biso   1.000  H
  C14      1.0000 0.23510  0.87400  0.31890  Biso   1.000  C
  H27      1.0000 0.21450  0.87910  0.23920  Biso   1.000  H
  H28      1.0000 0.28170  0.86750  0.30630  Biso   1.000  H
  C15      1.0000 0.12300  0.80640  0.42700  Biso   1.000  C
  H29      1.0000 0.10140  0.75870  0.48160  Biso   1.000  H
  H30      1.0000 0.09840  0.80880  0.35120  Biso   1.000  H
  C16      1.0000 0.15660  0.90620  0.59900  Biso   1.000  C
  H31      1.0000 0.14970  0.97160  0.63890  Biso   1.000  H
  H32      1.0000 0.13760  0.85370  0.65040  Biso   1.000  H
  C17      1.0000 0.25310  0.96320  0.50790  Biso   1.000  C
  H33      1.0000 0.24970  0.02970  0.54660  Biso   1.000  H
  H34      1.0000 0.29900  0.94850  0.49650  Biso   1.000  H
  C18      1.0000 0.15290  0.98290  0.40490  Biso   1.000  C
  H35      1.0000 0.14550  0.04980  0.44050  Biso   1.000  H
  H36      1.0000 0.13180  0.98160  0.32550  Biso   1.000  H
  N7       1.0000 0.22590  0.88800  0.58830  Biso   1.000  N
  N8       1.0000 0.22190  0.96820  0.38850  Biso   1.000  N
  N9       1.0000 0.12340  0.90660  0.48220  Biso   1.000  N
  P3       1.0000 0.20538  0.76124  0.39568  Biso   1.000  P
  Ag3      1.0000 0.22215  0.60856  0.29021  Biso   1.000  Ag
  C19      1.0000 0.76120  0.21460  0.45360  Biso   1.000  C
  H37      1.0000 0.71450  0.22570  0.45560  Biso   1.000  H
  H38      1.0000 0.77990  0.26280  0.39600  Biso   1.000  H
  C20      1.0000 0.76490  0.12600  0.68110  Biso   1.000  C
  H39      1.0000 0.78550  0.12090  0.76080  Biso   1.000  H
  H40      1.0000 0.71830  0.13250  0.69370  Biso   1.000  H
  C21      1.0000 0.87700  0.19360  0.57300  Biso   1.000  C
  H41      1.0000 0.89860  0.24130  0.51840  Biso   1.000  H
  H42      1.0000 0.90160  0.19120  0.64880  Biso   1.000  H
  C22      1.0000 0.84340  0.09380  0.40100  Biso   1.000  C
  H43      1.0000 0.85030  0.02840  0.36110  Biso   1.000  H
  H44      1.0000 0.86240  0.14630  0.34960  Biso   1.000  H
  C23      1.0000 0.74690  0.03680  0.49210  Biso   1.000  C
  H45      1.0000 0.75030  0.97030  0.45340  Biso   1.000  H
  H46      1.0000 0.70100  0.05150  0.50350  Biso   1.000  H
  C24      1.0000 0.84710  0.01710  0.59510  Biso   1.000  C
  H47      1.0000 0.85450  0.95020  0.55950  Biso   1.000  H
  H48      1.0000 0.86820  0.01840  0.67450  Biso   1.000  H
  N10      1.0000 0.77410  0.11200  0.41170  Biso   1.000  N
  N11      1.0000 0.77810  0.03180  0.61150  Biso   1.000  N
  N12      1.0000 0.87660  0.09340  0.51780  Biso   1.000  N
  P4       1.0000 0.79462  0.23876  0.60432  Biso   1.000  P
  Ag4      1.0000 0.77785  0.39144  0.70979  Biso   1.000  Ag
  C25      1.0000 0.73880  0.71460  0.45360  Biso   1.000  C
  H49      1.0000 0.78550  0.72570  0.45560  Biso   1.000  H
  H50      1.0000 0.72010  0.76280  0.39600  Biso   1.000  H
  C26      1.0000 0.73510  0.62600  0.68110  Biso   1.000  C
  H51      1.0000 0.71450  0.62090  0.76080  Biso   1.000  H
  H52      1.0000 0.78170  0.63250  0.69370  Biso   1.000  H
  C27      1.0000 0.62300  0.69360  0.57300  Biso   1.000  C
  H53      1.0000 0.60140  0.74130  0.51840  Biso   1.000  H
  H54      1.0000 0.59840  0.69120  0.64880  Biso   1.000  H
  C28      1.0000 0.65660  0.59380  0.40100  Biso   1.000  C
  H55      1.0000 0.64970  0.52840  0.36110  Biso   1.000  H
  H56      1.0000 0.63760  0.64630  0.34960  Biso   1.000  H
  C29      1.0000 0.75310  0.53680  0.49210  Biso   1.000  C
  H57      1.0000 0.74970  0.47030  0.45340  Biso   1.000  H
  H58      1.0000 0.79900  0.55150  0.50350  Biso   1.000  H
  C30      1.0000 0.65290  0.51710  0.59510  Biso   1.000  C
  H59      1.0000 0.64550  0.45020  0.55950  Biso   1.000  H
  H60      1.0000 0.63180  0.51840  0.67450  Biso   1.000  H
  N13      1.0000 0.72590  0.61200  0.41170  Biso   1.000  N
  N14      1.0000 0.72190  0.53180  0.61150  Biso   1.000  N
  N15      1.0000 0.62340  0.59340  0.51780  Biso   1.000  N
  P5       1.0000 0.70538  0.73876  0.60432  Biso   1.000  P
  Ag5      1.0000 0.72215  0.89144  0.70979  Biso   1.000  Ag
  C31      1.0000 0.26120  0.28540  0.54640  Biso   1.000  C
  H61      1.0000 0.21450  0.27430  0.54440  Biso   1.000  H
  H62      1.0000 0.27990  0.23720  0.60400  Biso   1.000  H
  C32      1.0000 0.26490  0.37400  0.31890  Biso   1.000  C
  H63      1.0000 0.28550  0.37910  0.23920  Biso   1.000  H
  H64      1.0000 0.21830  0.36750  0.30630  Biso   1.000  H
  C33      1.0000 0.37700  0.30640  0.42700  Biso   1.000  C
  H65      1.0000 0.39860  0.25870  0.48160  Biso   1.000  H
  H66      1.0000 0.40160  0.30880  0.35120  Biso   1.000  H
  C34      1.0000 0.34340  0.40620  0.59900  Biso   1.000  C
  H67      1.0000 0.35030  0.47160  0.63890  Biso   1.000  H
  H68      1.0000 0.36240  0.35370  0.65040  Biso   1.000  H
  C35      1.0000 0.24690  0.46320  0.50790  Biso   1.000  C
  H69      1.0000 0.25030  0.52970  0.54660  Biso   1.000  H
  H70      1.0000 0.20100  0.44850  0.49650  Biso   1.000  H
  C36      1.0000 0.34710  0.48290  0.40490  Biso   1.000  C
  H71      1.0000 0.35450  0.54980  0.44050  Biso   1.000  H
  H72      1.0000 0.36820  0.48160  0.32550  Biso   1.000  H
  N16      1.0000 0.27410  0.38800  0.58830  Biso   1.000  N
  N17      1.0000 0.27810  0.46820  0.38850  Biso   1.000  N
  N18      1.0000 0.37660  0.40660  0.48220  Biso   1.000  N
  P6       1.0000 0.29462  0.26124  0.39568  Biso   1.000  P
  Ag6      1.0000 0.27785  0.10856  0.29021  Biso   1.000  Ag
  C37      1.0000 0.76120  0.78540  0.95360  Biso   1.000  C
  H73      1.0000 0.71450  0.77430  0.95560  Biso   1.000  H
  H74      1.0000 0.77990  0.73720  0.89600  Biso   1.000  H
  C38      1.0000 0.76490  0.87400  0.18110  Biso   1.000  C
  H75      1.0000 0.78550  0.87910  0.26080  Biso   1.000  H
  H76      1.0000 0.71830  0.86750  0.19370  Biso   1.000  H
  C39      1.0000 0.87700  0.80640  0.07300  Biso   1.000  C
  H77      1.0000 0.89860  0.75870  0.01840  Biso   1.000  H
  H78      1.0000 0.90160  0.80880  0.14880  Biso   1.000  H
  C40      1.0000 0.84340  0.90620  0.90100  Biso   1.000  C
  H79      1.0000 0.85030  0.97160  0.86110  Biso   1.000  H
  H80      1.0000 0.86240  0.85370  0.84960  Biso   1.000  H
  C41      1.0000 0.74690  0.96320  0.99210  Biso   1.000  C
  H81      1.0000 0.75030  0.02970  0.95340  Biso   1.000  H
  H82      1.0000 0.70100  0.94850  0.00350  Biso   1.000  H
  C42      1.0000 0.84710  0.98290  0.09510  Biso   1.000  C
  H83      1.0000 0.85450  0.04980  0.05950  Biso   1.000  H
  H84      1.0000 0.86820  0.98160  0.17450  Biso   1.000  H
  N19      1.0000 0.77410  0.88800  0.91170  Biso   1.000  N
  N20      1.0000 0.77810  0.96820  0.11150  Biso   1.000  N
  N21      1.0000 0.87660  0.90660  0.01780  Biso   1.000  N
  P7       1.0000 0.79462  0.76124  0.10432  Biso   1.000  P
  Ag7      1.0000 0.77785  0.60856  0.20979  Biso   1.000  Ag
  C43      1.0000 0.23880  0.21460  0.04640  Biso   1.000  C
  H85      1.0000 0.28550  0.22570  0.04440  Biso   1.000  H
  H86      1.0000 0.22010  0.26280  0.10400  Biso   1.000  H
  C44      1.0000 0.23510  0.12600  0.81890  Biso   1.000  C
  H87      1.0000 0.21450  0.12090  0.73920  Biso   1.000  H
  H88      1.0000 0.28170  0.13250  0.80630  Biso   1.000  H
  C45      1.0000 0.12300  0.19360  0.92700  Biso   1.000  C
  H89      1.0000 0.10140  0.24130  0.98160  Biso   1.000  H
  H90      1.0000 0.09840  0.19120  0.85120  Biso   1.000  H
  C46      1.0000 0.15660  0.09380  0.09900  Biso   1.000  C
  H91      1.0000 0.14970  0.02840  0.13890  Biso   1.000  H
  H92      1.0000 0.13760  0.14630  0.15040  Biso   1.000  H
  C47      1.0000 0.25310  0.03680  0.00790  Biso   1.000  C
  H93      1.0000 0.24970  0.97030  0.04660  Biso   1.000  H
  H94      1.0000 0.29900  0.05150  0.99650  Biso   1.000  H
  C48      1.0000 0.15290  0.01710  0.90490  Biso   1.000  C
  H95      1.0000 0.14550  0.95020  0.94050  Biso   1.000  H
  H96      1.0000 0.13180  0.01840  0.82550  Biso   1.000  H
  N22      1.0000 0.22590  0.11200  0.08830  Biso   1.000  N
  N23      1.0000 0.22190  0.03180  0.88850  Biso   1.000  N
  N24      1.0000 0.12340  0.09340  0.98220  Biso   1.000  N
  P8       1.0000 0.20538  0.23876  0.89568  Biso   1.000  P
  Ag8      1.0000 0.22215  0.39144  0.79021  Biso   1.000  Ag
  C49      1.0000 0.60310  0.06690  0.34060  Biso   1.000  C
  C50      1.0000 0.54460  0.01920  0.40110  Biso   1.000  C
  H97      1.0000 0.52700  0.96860  0.34390  Biso   1.000  H
  C51      1.0000 0.56630  0.96160  0.51460  Biso   1.000  C
  H98      1.0000 0.59940  0.91190  0.49290  Biso   1.000  H
  H99      1.0000 0.58500  0.00900  0.57320  Biso   1.000  H
  C52      1.0000 0.49110  0.09200  0.42900  Biso   1.000  C
  H100     1.0000 0.47750  0.12570  0.35420  Biso   1.000  H
  H101     1.0000 0.50700  0.14400  0.48480  Biso   1.000  H
  O1       1.0000 0.64050  0.00780  0.28520  Biso   1.000  O
  O2       1.0000 0.61340  0.15770  0.35140  Biso   1.000  O
  C53      1.0000 0.39690  0.93310  0.65940  Biso   1.000  C
  C54      1.0000 0.45540  0.98080  0.59890  Biso   1.000  C
  H102     1.0000 0.47300  0.03140  0.65610  Biso   1.000  H
  C55      1.0000 0.43370  0.03840  0.48540  Biso   1.000  C
  H103     1.0000 0.40060  0.08810  0.50710  Biso   1.000  H
  H104     1.0000 0.41500  0.99100  0.42680  Biso   1.000  H
  C56      1.0000 0.50890  0.90800  0.57100  Biso   1.000  C
  H105     1.0000 0.52250  0.87430  0.64580  Biso   1.000  H
  H106     1.0000 0.49300  0.85600  0.51520  Biso   1.000  H
  O3       1.0000 0.35950  0.99220  0.71480  Biso   1.000  O
  O4       1.0000 0.38660  0.84230  0.64860  Biso   1.000  O
  C57      1.0000 0.89690  0.43310  0.84060  Biso   1.000  C
  C58      1.0000 0.95540  0.48080  0.90110  Biso   1.000  C
  H107     1.0000 0.97300  0.53140  0.84390  Biso   1.000  H
  C59      1.0000 0.93370  0.53840  0.01460  Biso   1.000  C
  H108     1.0000 0.90060  0.58810  0.99290  Biso   1.000  H
  H109     1.0000 0.91500  0.49100  0.07320  Biso   1.000  H
  C60      1.0000 0.00890  0.40800  0.92900  Biso   1.000  C
  H110     1.0000 0.02250  0.37430  0.85420  Biso   1.000  H
  H111     1.0000 0.99300  0.35600  0.98480  Biso   1.000  H
  O5       1.0000 0.85950  0.49220  0.78520  Biso   1.000  O
  O6       1.0000 0.88660  0.34230  0.85140  Biso   1.000  O
  C61      1.0000 0.10310  0.56690  0.15940  Biso   1.000  C
  C62      1.0000 0.04460  0.51920  0.09890  Biso   1.000  C
  H112     1.0000 0.02700  0.46860  0.15610  Biso   1.000  H
  C63      1.0000 0.06630  0.46160  0.98540  Biso   1.000  C
  H113     1.0000 0.09940  0.41190  0.00710  Biso   1.000  H
  H114     1.0000 0.08500  0.50900  0.92680  Biso   1.000  H
  C64      1.0000 0.99110  0.59200  0.07100  Biso   1.000  C
  H115     1.0000 0.97750  0.62570  0.14580  Biso   1.000  H
  H116     1.0000 0.00700  0.64400  0.01520  Biso   1.000  H
  O7       1.0000 0.14050  0.50780  0.21480  Biso   1.000  O
  O8       1.0000 0.11340  0.65770  0.14860  Biso   1.000  O
  C65      1.0000 0.39690  0.06690  0.15940  Biso   1.000  C
  C66      1.0000 0.45540  0.01920  0.09890  Biso   1.000  C
  H117     1.0000 0.47300  0.96860  0.15610  Biso   1.000  H
  C67      1.0000 0.43370  0.96160  0.98540  Biso   1.000  C
  H118     1.0000 0.40060  0.91190  0.00710  Biso   1.000  H
  H119     1.0000 0.41500  0.00900  0.92680  Biso   1.000  H
  C68      1.0000 0.50890  0.09200  0.07100  Biso   1.000  C
  H120     1.0000 0.52250  0.12570  0.14580  Biso   1.000  H
  H121     1.0000 0.49300  0.14400  0.01520  Biso   1.000  H
  O9       1.0000 0.35950  0.00780  0.21480  Biso   1.000  O
  O10      1.0000 0.38660  0.15770  0.14860  Biso   1.000  O
  C69      1.0000 0.60310  0.93310  0.84060  Biso   1.000  C
  C70      1.0000 0.54460  0.98080  0.90110  Biso   1.000  C
  H122     1.0000 0.52700  0.03140  0.84390  Biso   1.000  H
  C71      1.0000 0.56630  0.03840  0.01460  Biso   1.000  C
  H123     1.0000 0.59940  0.08810  0.99290  Biso   1.000  H
  H124     1.0000 0.58500  0.99100  0.07320  Biso   1.000  H
  C72      1.0000 0.49110  0.90800  0.92900  Biso   1.000  C
  H125     1.0000 0.47750  0.87430  0.85420  Biso   1.000  H
  H126     1.0000 0.50700  0.85600  0.98480  Biso   1.000  H
  O11      1.0000 0.64050  0.99220  0.78520  Biso   1.000  O
  O12      1.0000 0.61340  0.84230  0.85140  Biso   1.000  O
  C73      1.0000 0.10310  0.43310  0.65940  Biso   1.000  C
  C74      1.0000 0.04460  0.48080  0.59890  Biso   1.000  C
  H127     1.0000 0.02700  0.53140  0.65610  Biso   1.000  H
  C75      1.0000 0.06630  0.53840  0.48540  Biso   1.000  C
  H128     1.0000 0.09940  0.58810  0.50710  Biso   1.000  H
  H129     1.0000 0.08500  0.49100  0.42680  Biso   1.000  H
  C76      1.0000 0.99110  0.40800  0.57100  Biso   1.000  C
  H130     1.0000 0.97750  0.37430  0.64580  Biso   1.000  H
  H131     1.0000 0.00700  0.35600  0.51520  Biso   1.000  H
  O13      1.0000 0.14050  0.49220  0.71480  Biso   1.000  O
  O14      1.0000 0.11340  0.34230  0.64860  Biso   1.000  O
  C77      1.0000 0.89690  0.56690  0.34060  Biso   1.000  C
  C78      1.0000 0.95540  0.51920  0.40110  Biso   1.000  C
  H132     1.0000 0.97300  0.46860  0.34390  Biso   1.000  H
  C79      1.0000 0.93370  0.46160  0.51460  Biso   1.000  C
  H133     1.0000 0.90060  0.41190  0.49290  Biso   1.000  H
  H134     1.0000 0.91500  0.50900  0.57320  Biso   1.000  H
  C80      1.0000 0.00890  0.59200  0.42900  Biso   1.000  C
  H135     1.0000 0.02250  0.62570  0.35420  Biso   1.000  H
  H136     1.0000 0.99300  0.64400  0.48480  Biso   1.000  H
  O15      1.0000 0.85950  0.50780  0.28520  Biso   1.000  O
  O16      1.0000 0.88660  0.65770  0.35140  Biso   1.000  O
