data_MIXYEZ_clean
_audit_creation_date              2015-10-16
_audit_creation_method            'Materials Studio'
_symmetry_space_group_name_H-M    'P1'
_symmetry_Int_Tables_number       1
_symmetry_cell_setting            triclinic
loop_
_symmetry_equiv_pos_as_xyz
  x,y,z
_cell_length_a                    7.0012
_cell_length_b                    16.6660
_cell_length_c                    16.6660
_cell_angle_alpha                 120.0000
_cell_angle_beta                  90.0000
_cell_angle_gamma                 90.0000
loop_
_atom_site_label
_atom_site_type_symbol
_atom_site_fract_x
_atom_site_fract_y
_atom_site_fract_z
_atom_site_U_iso_or_equiv
_atom_site_adp_type
_atom_site_occupancy
Ni1    Ni    0.50000   0.32173   0.32173   0.01267  Uiso   1.00
Ni2    Ni    0.50000  -0.00000   0.67827   0.01267  Uiso   1.00
Ni3    Ni    0.50000   0.67827   0.00000   0.01267  Uiso   1.00
H1     H     0.15480   0.40770   0.46320   0.01267  Uiso   1.00
H2     H     0.15400   0.72750   0.91520   0.01267  Uiso   1.00
H3     H     0.15480   0.94450   0.53680   0.01267  Uiso   1.00
H4     H     0.15400   0.18770   0.27250   0.01267  Uiso   1.00
H5     H     0.15400   0.38320   0.24600   0.01267  Uiso   1.00
H6     H     0.84600   0.91520   0.72750   0.01267  Uiso   1.00
H7     H     0.15400   0.75400   0.13720   0.01267  Uiso   1.00
H8     H     0.15400   0.08480   0.81230   0.01267  Uiso   1.00
H9     H     0.15480   0.59230   0.05550   0.01267  Uiso   1.00
H10    H     0.50000   0.28360   0.77500   0.01267  Uiso   1.00
H11    H     0.84600   0.08480   0.81230   0.01267  Uiso   1.00
H12    H     0.50000   0.22500   0.50860   0.01267  Uiso   1.00
H13    H     0.50000   0.50860   0.22500   0.01267  Uiso   1.00
H14    H     0.84600   0.18770   0.27250   0.01267  Uiso   1.00
H15    H     0.50000   0.13980  -0.00000   0.01267  Uiso   1.00
H16    H     0.84600   0.38320   0.24600   0.01267  Uiso   1.00
H17    H     0.84520   0.05550   0.59230   0.01267  Uiso   1.00
H18    H     0.84520   0.40770   0.46320   0.01267  Uiso   1.00
H19    H     0.84520   0.94450   0.53680   0.01267  Uiso   1.00
H20    H     0.84600   0.86280   0.61680   0.01267  Uiso   1.00
H21    H     0.15400   0.61680   0.86280   0.01267  Uiso   1.00
H22    H     0.84600   0.75400   0.13720   0.01267  Uiso   1.00
H23    H     0.84600   0.72750   0.91520   0.01267  Uiso   1.00
H24    H     0.84600   0.27250   0.18770   0.01267  Uiso   1.00
H25    H     0.15400   0.91520   0.72750   0.01267  Uiso   1.00
H26    H     0.84520   0.46320   0.40770   0.01267  Uiso   1.00
H27    H     0.15480   0.05550   0.59230   0.01267  Uiso   1.00
H28    H     0.50000   0.77500   0.28360   0.01267  Uiso   1.00
H29    H     0.50000  -0.00000   0.13980   0.01267  Uiso   1.00
H30    H     0.84600   0.81230   0.08480   0.01267  Uiso   1.00
H31    H     0.84600   0.13720   0.75400   0.01267  Uiso   1.00
H32    H     0.84520   0.53680   0.94450   0.01267  Uiso   1.00
H33    H     0.15480   0.46320   0.40770   0.01267  Uiso   1.00
H34    H     0.15480   0.53680   0.94450   0.01267  Uiso   1.00
H35    H     0.15400   0.13720   0.75400   0.01267  Uiso   1.00
H36    H     0.50000   0.71640   0.49140   0.01267  Uiso   1.00
H37    H     0.15400   0.24600   0.38320   0.01267  Uiso   1.00
H38    H     0.84600   0.24600   0.38320   0.01267  Uiso   1.00
H39    H     0.50000   0.49140   0.71640   0.01267  Uiso   1.00
H40    H     0.84600   0.61680   0.86280   0.01267  Uiso   1.00
H41    H     0.15400   0.81230   0.08480   0.01267  Uiso   1.00
H42    H     0.84520   0.59230   0.05550   0.01267  Uiso   1.00
H43    H     0.50000   0.86020   0.86020   0.01267  Uiso   1.00
H44    H     0.15400   0.86280   0.61680   0.01267  Uiso   1.00
H45    H     0.15400   0.27250   0.18770   0.01267  Uiso   1.00
C1     C     0.50000  -0.00000   0.91610   0.01267  Uiso   1.00
C2     C     0.50000   0.42700   0.69620   0.01267  Uiso   1.00
C3     C     0.50000   0.63720   0.23880   0.01267  Uiso   1.00
C4     C     0.50000   0.82530   0.00000   0.01267  Uiso   1.00
C5     C     0.50000   0.60160   0.36280   0.01267  Uiso   1.00
C6     C     0.50000   0.57300   0.26920   0.01267  Uiso   1.00
C7     C     0.50000   0.60500   0.13860   0.01267  Uiso   1.00
C8     C     0.10760   0.24540   0.32690   0.01267  Uiso   1.00
C9     C     0.10760   0.75460   0.08150   0.01267  Uiso   1.00
C10    C     0.50000   0.91610   0.00000   0.01267  Uiso   1.00
C11    C     0.50000   0.08280   0.00000   0.01267  Uiso   1.00
C12    C     0.50000   0.91720   0.91720   0.01267  Uiso   1.00
C13    C     0.50000   0.36280   0.60160   0.01267  Uiso   1.00
C14    C     0.89240   0.67310   0.91850   0.01267  Uiso   1.00
C15    C     0.50000   0.86140   0.46640   0.01267  Uiso   1.00
C16    C     0.89240   0.91850   0.67310   0.01267  Uiso   1.00
C17    C     0.50000   0.39500   0.53360   0.01267  Uiso   1.00
C18    C     0.10760   0.32690   0.24540   0.01267  Uiso   1.00
C19    C     0.50000   0.39840   0.76120   0.01267  Uiso   1.00
C20    C     0.50000   0.08390   0.08390   0.01267  Uiso   1.00
C21    C     0.89240   0.08150   0.75460   0.01267  Uiso   1.00
C22    C     0.50000   0.76120   0.39840   0.01267  Uiso   1.00
C23    C     0.89240   0.32690   0.24540   0.01267  Uiso   1.00
C24    C     0.89200   0.40660   0.40660   0.01267  Uiso   1.00
C25    C     0.50000   0.30380   0.73080   0.01267  Uiso   1.00
C26    C     0.50000  -0.00000   0.08280   0.01267  Uiso   1.00
C27    C     0.50000   0.26920   0.57300   0.01267  Uiso   1.00
C28    C     0.50000   0.53360   0.39500   0.01267  Uiso   1.00
C29    C     0.89240   0.24540   0.32690   0.01267  Uiso   1.00
C30    C     0.89240   0.75460   0.08150   0.01267  Uiso   1.00
C31    C     0.10800   0.59340  -0.00000   0.01267  Uiso   1.00
C32    C     0.10800  -0.00000   0.59340   0.01267  Uiso   1.00
C33    C     0.89200   0.59340  -0.00000   0.01267  Uiso   1.00
C34    C     0.50000   0.13860   0.60500   0.01267  Uiso   1.00
C35    C     0.10760   0.67310   0.91850   0.01267  Uiso   1.00
C36    C     0.89200  -0.00000   0.59340   0.01267  Uiso   1.00
C37    C     0.10800   0.40660   0.40660   0.01267  Uiso   1.00
C38    C     0.50000   0.23880   0.63720   0.01267  Uiso   1.00
C39    C     0.50000  -0.00000   0.82530   0.01267  Uiso   1.00
C40    C     0.10760   0.91850   0.67310   0.01267  Uiso   1.00
C41    C     0.50000   0.17470   0.17470   0.01267  Uiso   1.00
C42    C     0.10760   0.08150   0.75460   0.01267  Uiso   1.00
C43    C     0.50000   0.69620   0.42700   0.01267  Uiso   1.00
C44    C     0.50000   0.73080   0.30380   0.01267  Uiso   1.00
C45    C     0.50000   0.46640   0.86140   0.01267  Uiso   1.00
N1     N     0.81430   0.32400   0.32400   0.01267  Uiso   1.00
N2     N     0.81430   0.67600   0.00000   0.01267  Uiso   1.00
N3     N     0.18570   0.32400   0.32400   0.01267  Uiso   1.00
N4     N     0.81430  -0.00000   0.67600   0.01267  Uiso   1.00
N5     N     0.18570  -0.00000   0.67600   0.01267  Uiso   1.00
N6     N     0.18570   0.67600   0.00000   0.01267  Uiso   1.00
O1     O     0.50000   0.66570   0.11470   0.01267  Uiso   1.00
O2     O     0.50000   0.25030   0.17260   0.01267  Uiso   1.00
O3     O     0.50000   0.74970   0.92230   0.01267  Uiso   1.00
O4     O     0.50000   0.91850   0.43630   0.01267  Uiso   1.00
O5     O     0.50000   0.33430   0.44900   0.01267  Uiso   1.00
O6     O     0.50000   0.55100   0.88530   0.01267  Uiso   1.00
O7     O     0.50000   0.88530   0.55100   0.01267  Uiso   1.00
O8     O     0.50000   0.82740   0.07770   0.01267  Uiso   1.00
O9     O     0.50000   0.43630   0.91850   0.01267  Uiso   1.00
O10    O     0.50000   0.56370   0.48220   0.01267  Uiso   1.00
O11    O     0.50000   0.08150   0.51780   0.01267  Uiso   1.00
O12    O     0.50000   0.17260   0.25030   0.01267  Uiso   1.00
O13    O     0.50000   0.51780   0.08150   0.01267  Uiso   1.00
O14    O     0.50000   0.48220   0.56370   0.01267  Uiso   1.00
O15    O     0.50000   0.44900   0.33430   0.01267  Uiso   1.00
O16    O     0.50000   0.07770   0.82740   0.01267  Uiso   1.00
O17    O     0.50000   0.11470   0.66570   0.01267  Uiso   1.00
O18    O     0.50000   0.92230   0.74970   0.01267  Uiso   1.00
