data_image0
_cell_length_a       32.997
_cell_length_b       9.7187
_cell_length_c       18.392
_cell_angle_alpha    90
_cell_angle_beta     92.25
_cell_angle_gamma    90

_symmetry_space_group_name_H-M    "P 1"
_symmetry_int_tables_number       1

loop_
  _symmetry_equiv_pos_as_xyz
  'x, y, z'

loop_
  _atom_site_label
  _atom_site_occupancy
  _atom_site_fract_x
  _atom_site_fract_y
  _atom_site_fract_z
  _atom_site_thermal_displace_type
  _atom_site_B_iso_or_equiv
  _atom_site_type_symbol
  C1       1.0000 0.19304  0.15454  0.37435  Biso   1.000  C
  C2       1.0000 0.19054  0.07787  0.30278  Biso   1.000  C
  C3       1.0000 0.15369  0.02643  0.27543  Biso   1.000  C
  H1       1.0000 0.12980  0.03710  0.30210  Biso   1.000  H
  C4       1.0000 0.22541  0.06220  0.26375  Biso   1.000  C
  H2       1.0000 0.25050  0.09790  0.28240  Biso   1.000  H
  C5       1.0000 0.22341  0.99309  0.19633  Biso   1.000  C
  H3       1.0000 0.24710  0.98240  0.16920  Biso   1.000  H
  C6       1.0000 0.18656  0.94068  0.16977  Biso   1.000  C
  C7       1.0000 0.18508  0.86899  0.09773  Biso   1.000  C
  C8       1.0000 0.29643  0.00830  0.04107  Biso   1.000  C
  C9       1.0000 0.27163  0.13378  0.01964  Biso   1.000  C
  C10      1.0000 0.25262  0.14158  0.95125  Biso   1.000  C
  H4       1.0000 0.25480  0.06700  0.91820  Biso   1.000  H
  C11      1.0000 0.26949  0.24294  0.06935  Biso   1.000  C
  H5       1.0000 0.28290  0.23760  0.11590  Biso   1.000  H
  C12      1.0000 0.42048  0.87721  0.01256  Biso   1.000  C
  C13      1.0000 0.46229  0.94116  0.00529  Biso   1.000  C
  C14      1.0000 0.46531  0.07754  0.99253  Biso   1.000  C
  H6       1.0000 0.44180  0.13360  0.98790  Biso   1.000  H
  C15      1.0000 0.49506  0.86465  0.01376  Biso   1.000  C
  H7       1.0000 0.49240  0.76940  0.02420  Biso   1.000  H
  C16      1.0000 0.15219  0.95975  0.20920  Biso   1.000  C
  H8       1.0000 0.12690  0.92610  0.19020  Biso   1.000  H
  Co1      1.0000 0.15230  0.69968  0.98706  Biso   1.000  Co
  O1       1.0000 0.21428  0.88274  0.05666  Biso   1.000  O
  O2       1.0000 0.15283  0.80215  0.08182  Biso   1.000  O
  O3       1.0000 0.22737  0.18458  0.39990  Biso   1.000  O
  O4       1.0000 0.15952  0.18021  0.40290  Biso   1.000  O
  O5       1.0000 0.38997  0.94940  0.00414  Biso   1.000  O
  O6       1.0000 0.41730  0.75755  0.02915  Biso   1.000  O
  O7       1.0000 0.29606  0.90703  0.99489  Biso   1.000  O
  O8       1.0000 0.31714  0.00741  0.09851  Biso   1.000  O
  C17      1.0000 0.69304  0.65454  0.37435  Biso   1.000  C
  C18      1.0000 0.69054  0.57787  0.30278  Biso   1.000  C
  C19      1.0000 0.65369  0.52643  0.27543  Biso   1.000  C
  H9       1.0000 0.62980  0.53710  0.30210  Biso   1.000  H
  C20      1.0000 0.72541  0.56220  0.26375  Biso   1.000  C
  H10      1.0000 0.75050  0.59790  0.28240  Biso   1.000  H
  C21      1.0000 0.72341  0.49309  0.19633  Biso   1.000  C
  H11      1.0000 0.74710  0.48240  0.16920  Biso   1.000  H
  C22      1.0000 0.68656  0.44068  0.16977  Biso   1.000  C
  C23      1.0000 0.68508  0.36899  0.09773  Biso   1.000  C
  C24      1.0000 0.79643  0.50830  0.04107  Biso   1.000  C
  C25      1.0000 0.77163  0.63378  0.01964  Biso   1.000  C
  C26      1.0000 0.75262  0.64158  0.95125  Biso   1.000  C
  H12      1.0000 0.75480  0.56700  0.91820  Biso   1.000  H
  C27      1.0000 0.76949  0.74294  0.06935  Biso   1.000  C
  H13      1.0000 0.78290  0.73760  0.11590  Biso   1.000  H
  C28      1.0000 0.92048  0.37721  0.01256  Biso   1.000  C
  C29      1.0000 0.96229  0.44116  0.00529  Biso   1.000  C
  C30      1.0000 0.96531  0.57754  0.99253  Biso   1.000  C
  H14      1.0000 0.94180  0.63360  0.98790  Biso   1.000  H
  C31      1.0000 0.99506  0.36465  0.01376  Biso   1.000  C
  H15      1.0000 0.99240  0.26940  0.02420  Biso   1.000  H
  C32      1.0000 0.65219  0.45975  0.20920  Biso   1.000  C
  H16      1.0000 0.62690  0.42610  0.19020  Biso   1.000  H
  Co2      1.0000 0.65230  0.19968  0.98706  Biso   1.000  Co
  O9       1.0000 0.71428  0.38274  0.05666  Biso   1.000  O
  O10      1.0000 0.65283  0.30215  0.08182  Biso   1.000  O
  O11      1.0000 0.72737  0.68458  0.39990  Biso   1.000  O
  O12      1.0000 0.65952  0.68021  0.40290  Biso   1.000  O
  O13      1.0000 0.88997  0.44940  0.00414  Biso   1.000  O
  O14      1.0000 0.91730  0.25755  0.02915  Biso   1.000  O
  O15      1.0000 0.79606  0.40703  0.99489  Biso   1.000  O
  O16      1.0000 0.81714  0.50741  0.09851  Biso   1.000  O
  C33      1.0000 0.80696  0.15454  0.12565  Biso   1.000  C
  C34      1.0000 0.80946  0.07787  0.19722  Biso   1.000  C
  C35      1.0000 0.84631  0.02643  0.22457  Biso   1.000  C
  H17      1.0000 0.87020  0.03710  0.19790  Biso   1.000  H
  C36      1.0000 0.77459  0.06220  0.23625  Biso   1.000  C
  H18      1.0000 0.74950  0.09790  0.21760  Biso   1.000  H
  C37      1.0000 0.77659  0.99309  0.30367  Biso   1.000  C
  H19      1.0000 0.75290  0.98240  0.33080  Biso   1.000  H
  C38      1.0000 0.81344  0.94068  0.33023  Biso   1.000  C
  C39      1.0000 0.81492  0.86899  0.40227  Biso   1.000  C
  C40      1.0000 0.70357  0.00830  0.45893  Biso   1.000  C
  C41      1.0000 0.72837  0.13378  0.48036  Biso   1.000  C
  C42      1.0000 0.74738  0.14158  0.54875  Biso   1.000  C
  H20      1.0000 0.74520  0.06700  0.58180  Biso   1.000  H
  C43      1.0000 0.73051  0.24294  0.43065  Biso   1.000  C
  H21      1.0000 0.71710  0.23760  0.38410  Biso   1.000  H
  C44      1.0000 0.57952  0.87721  0.48744  Biso   1.000  C
  C45      1.0000 0.53771  0.94116  0.49471  Biso   1.000  C
  C46      1.0000 0.53469  0.07754  0.50747  Biso   1.000  C
  H22      1.0000 0.55820  0.13360  0.51210  Biso   1.000  H
  C47      1.0000 0.50494  0.86465  0.48624  Biso   1.000  C
  H23      1.0000 0.50760  0.76940  0.47580  Biso   1.000  H
  C48      1.0000 0.84781  0.95975  0.29080  Biso   1.000  C
  H24      1.0000 0.87310  0.92610  0.30980  Biso   1.000  H
  Co3      1.0000 0.84770  0.69968  0.51294  Biso   1.000  Co
  O17      1.0000 0.78572  0.88274  0.44334  Biso   1.000  O
  O18      1.0000 0.84717  0.80215  0.41818  Biso   1.000  O
  O19      1.0000 0.77263  0.18458  0.10010  Biso   1.000  O
  O20      1.0000 0.84048  0.18021  0.09710  Biso   1.000  O
  O21      1.0000 0.61003  0.94940  0.49586  Biso   1.000  O
  O22      1.0000 0.58270  0.75755  0.47085  Biso   1.000  O
  O23      1.0000 0.70394  0.90703  0.50511  Biso   1.000  O
  O24      1.0000 0.68286  0.00741  0.40149  Biso   1.000  O
  C49      1.0000 0.30696  0.65454  0.12565  Biso   1.000  C
  C50      1.0000 0.30946  0.57787  0.19722  Biso   1.000  C
  C51      1.0000 0.34631  0.52643  0.22457  Biso   1.000  C
  H25      1.0000 0.37020  0.53710  0.19790  Biso   1.000  H
  C52      1.0000 0.27459  0.56220  0.23625  Biso   1.000  C
  H26      1.0000 0.24950  0.59790  0.21760  Biso   1.000  H
  C53      1.0000 0.27659  0.49309  0.30367  Biso   1.000  C
  H27      1.0000 0.25290  0.48240  0.33080  Biso   1.000  H
  C54      1.0000 0.31344  0.44068  0.33023  Biso   1.000  C
  C55      1.0000 0.31492  0.36899  0.40227  Biso   1.000  C
  C56      1.0000 0.20357  0.50830  0.45893  Biso   1.000  C
  C57      1.0000 0.22837  0.63378  0.48036  Biso   1.000  C
  C58      1.0000 0.24738  0.64158  0.54875  Biso   1.000  C
  H28      1.0000 0.24520  0.56700  0.58180  Biso   1.000  H
  C59      1.0000 0.23051  0.74294  0.43065  Biso   1.000  C
  H29      1.0000 0.21710  0.73760  0.38410  Biso   1.000  H
  C60      1.0000 0.07952  0.37721  0.48744  Biso   1.000  C
  C61      1.0000 0.03771  0.44116  0.49471  Biso   1.000  C
  C62      1.0000 0.03469  0.57754  0.50747  Biso   1.000  C
  H30      1.0000 0.05820  0.63360  0.51210  Biso   1.000  H
  C63      1.0000 0.00494  0.36465  0.48624  Biso   1.000  C
  H31      1.0000 0.00760  0.26940  0.47580  Biso   1.000  H
  C64      1.0000 0.34781  0.45975  0.29080  Biso   1.000  C
  H32      1.0000 0.37310  0.42610  0.30980  Biso   1.000  H
  Co4      1.0000 0.34770  0.19968  0.51294  Biso   1.000  Co
  O25      1.0000 0.28572  0.38274  0.44334  Biso   1.000  O
  O26      1.0000 0.34717  0.30215  0.41818  Biso   1.000  O
  O27      1.0000 0.27263  0.68458  0.10010  Biso   1.000  O
  O28      1.0000 0.34048  0.68021  0.09710  Biso   1.000  O
  O29      1.0000 0.11003  0.44940  0.49586  Biso   1.000  O
  O30      1.0000 0.08270  0.25755  0.47085  Biso   1.000  O
  O31      1.0000 0.20394  0.40703  0.50511  Biso   1.000  O
  O32      1.0000 0.18286  0.50741  0.40149  Biso   1.000  O
  C65      1.0000 0.80696  0.84546  0.62565  Biso   1.000  C
  C66      1.0000 0.80946  0.92213  0.69722  Biso   1.000  C
  C67      1.0000 0.84631  0.97357  0.72457  Biso   1.000  C
  H33      1.0000 0.87020  0.96290  0.69790  Biso   1.000  H
  C68      1.0000 0.77459  0.93780  0.73625  Biso   1.000  C
  H34      1.0000 0.74950  0.90210  0.71760  Biso   1.000  H
  C69      1.0000 0.77659  0.00691  0.80367  Biso   1.000  C
  H35      1.0000 0.75290  0.01760  0.83080  Biso   1.000  H
  C70      1.0000 0.81344  0.05932  0.83023  Biso   1.000  C
  C71      1.0000 0.81492  0.13101  0.90227  Biso   1.000  C
  C72      1.0000 0.70357  0.99170  0.95893  Biso   1.000  C
  C73      1.0000 0.72837  0.86622  0.98036  Biso   1.000  C
  C74      1.0000 0.74738  0.85842  0.04875  Biso   1.000  C
  H36      1.0000 0.74520  0.93300  0.08180  Biso   1.000  H
  C75      1.0000 0.73051  0.75706  0.93065  Biso   1.000  C
  H37      1.0000 0.71710  0.76240  0.88410  Biso   1.000  H
  C76      1.0000 0.57952  0.12279  0.98744  Biso   1.000  C
  C77      1.0000 0.53771  0.05884  0.99471  Biso   1.000  C
  C78      1.0000 0.53469  0.92246  0.00747  Biso   1.000  C
  H38      1.0000 0.55820  0.86640  0.01210  Biso   1.000  H
  C79      1.0000 0.50494  0.13535  0.98624  Biso   1.000  C
  H39      1.0000 0.50760  0.23060  0.97580  Biso   1.000  H
  C80      1.0000 0.84781  0.04025  0.79080  Biso   1.000  C
  H40      1.0000 0.87310  0.07390  0.80980  Biso   1.000  H
  Co5      1.0000 0.84770  0.30032  0.01294  Biso   1.000  Co
  O33      1.0000 0.78572  0.11726  0.94334  Biso   1.000  O
  O34      1.0000 0.84717  0.19785  0.91818  Biso   1.000  O
  O35      1.0000 0.77263  0.81542  0.60010  Biso   1.000  O
  O36      1.0000 0.84048  0.81979  0.59710  Biso   1.000  O
  O37      1.0000 0.61003  0.05060  0.99586  Biso   1.000  O
  O38      1.0000 0.58270  0.24245  0.97085  Biso   1.000  O
  O39      1.0000 0.70394  0.09297  0.00511  Biso   1.000  O
  O40      1.0000 0.68286  0.99259  0.90149  Biso   1.000  O
  C81      1.0000 0.30696  0.34546  0.62565  Biso   1.000  C
  C82      1.0000 0.30946  0.42213  0.69722  Biso   1.000  C
  C83      1.0000 0.34631  0.47357  0.72457  Biso   1.000  C
  H41      1.0000 0.37020  0.46290  0.69790  Biso   1.000  H
  C84      1.0000 0.27459  0.43780  0.73625  Biso   1.000  C
  H42      1.0000 0.24950  0.40210  0.71760  Biso   1.000  H
  C85      1.0000 0.27659  0.50691  0.80367  Biso   1.000  C
  H43      1.0000 0.25290  0.51760  0.83080  Biso   1.000  H
  C86      1.0000 0.31344  0.55932  0.83023  Biso   1.000  C
  C87      1.0000 0.31492  0.63101  0.90227  Biso   1.000  C
  C88      1.0000 0.20357  0.49170  0.95893  Biso   1.000  C
  C89      1.0000 0.22837  0.36622  0.98036  Biso   1.000  C
  C90      1.0000 0.24738  0.35842  0.04875  Biso   1.000  C
  H44      1.0000 0.24520  0.43300  0.08180  Biso   1.000  H
  C91      1.0000 0.23051  0.25706  0.93065  Biso   1.000  C
  H45      1.0000 0.21710  0.26240  0.88410  Biso   1.000  H
  C92      1.0000 0.07952  0.62279  0.98744  Biso   1.000  C
  C93      1.0000 0.03771  0.55884  0.99471  Biso   1.000  C
  C94      1.0000 0.03469  0.42246  0.00747  Biso   1.000  C
  H46      1.0000 0.05820  0.36640  0.01210  Biso   1.000  H
  C95      1.0000 0.00494  0.63535  0.98624  Biso   1.000  C
  H47      1.0000 0.00760  0.73060  0.97580  Biso   1.000  H
  C96      1.0000 0.34781  0.54025  0.79080  Biso   1.000  C
  H48      1.0000 0.37310  0.57390  0.80980  Biso   1.000  H
  Co6      1.0000 0.34770  0.80032  0.01294  Biso   1.000  Co
  O41      1.0000 0.28572  0.61726  0.94334  Biso   1.000  O
  O42      1.0000 0.34717  0.69785  0.91818  Biso   1.000  O
  O43      1.0000 0.27263  0.31542  0.60010  Biso   1.000  O
  O44      1.0000 0.34048  0.31979  0.59710  Biso   1.000  O
  O45      1.0000 0.11003  0.55060  0.99586  Biso   1.000  O
  O46      1.0000 0.08270  0.74245  0.97085  Biso   1.000  O
  O47      1.0000 0.20394  0.59297  0.00511  Biso   1.000  O
  O48      1.0000 0.18286  0.49259  0.90149  Biso   1.000  O
  C97      1.0000 0.19304  0.84546  0.87435  Biso   1.000  C
  C98      1.0000 0.19054  0.92213  0.80278  Biso   1.000  C
  C99      1.0000 0.15369  0.97357  0.77543  Biso   1.000  C
  H49      1.0000 0.12980  0.96290  0.80210  Biso   1.000  H
  C100     1.0000 0.22541  0.93780  0.76375  Biso   1.000  C
  H50      1.0000 0.25050  0.90210  0.78240  Biso   1.000  H
  C101     1.0000 0.22341  0.00691  0.69633  Biso   1.000  C
  H51      1.0000 0.24710  0.01760  0.66920  Biso   1.000  H
  C102     1.0000 0.18656  0.05932  0.66977  Biso   1.000  C
  C103     1.0000 0.18508  0.13101  0.59773  Biso   1.000  C
  C104     1.0000 0.29643  0.99170  0.54107  Biso   1.000  C
  C105     1.0000 0.27163  0.86622  0.51964  Biso   1.000  C
  C106     1.0000 0.25262  0.85842  0.45125  Biso   1.000  C
  H52      1.0000 0.25480  0.93300  0.41820  Biso   1.000  H
  C107     1.0000 0.26949  0.75706  0.56935  Biso   1.000  C
  H53      1.0000 0.28290  0.76240  0.61590  Biso   1.000  H
  C108     1.0000 0.42048  0.12279  0.51256  Biso   1.000  C
  C109     1.0000 0.46229  0.05884  0.50529  Biso   1.000  C
  C110     1.0000 0.46531  0.92246  0.49253  Biso   1.000  C
  H54      1.0000 0.44180  0.86640  0.48790  Biso   1.000  H
  C111     1.0000 0.49506  0.13535  0.51376  Biso   1.000  C
  H55      1.0000 0.49240  0.23060  0.52420  Biso   1.000  H
  C112     1.0000 0.15219  0.04025  0.70920  Biso   1.000  C
  H56      1.0000 0.12690  0.07390  0.69020  Biso   1.000  H
  Co7      1.0000 0.15230  0.30032  0.48706  Biso   1.000  Co
  O49      1.0000 0.21428  0.11726  0.55666  Biso   1.000  O
  O50      1.0000 0.15283  0.19785  0.58182  Biso   1.000  O
  O51      1.0000 0.22737  0.81542  0.89990  Biso   1.000  O
  O52      1.0000 0.15952  0.81979  0.90290  Biso   1.000  O
  O53      1.0000 0.38997  0.05060  0.50414  Biso   1.000  O
  O54      1.0000 0.41730  0.24245  0.52915  Biso   1.000  O
  O55      1.0000 0.29606  0.09297  0.49489  Biso   1.000  O
  O56      1.0000 0.31714  0.99259  0.59851  Biso   1.000  O
  C113     1.0000 0.69304  0.34546  0.87435  Biso   1.000  C
  C114     1.0000 0.69054  0.42213  0.80278  Biso   1.000  C
  C115     1.0000 0.65369  0.47357  0.77543  Biso   1.000  C
  H57      1.0000 0.62980  0.46290  0.80210  Biso   1.000  H
  C116     1.0000 0.72541  0.43780  0.76375  Biso   1.000  C
  H58      1.0000 0.75050  0.40210  0.78240  Biso   1.000  H
  C117     1.0000 0.72341  0.50691  0.69633  Biso   1.000  C
  H59      1.0000 0.74710  0.51760  0.66920  Biso   1.000  H
  C118     1.0000 0.68656  0.55932  0.66977  Biso   1.000  C
  C119     1.0000 0.68508  0.63101  0.59773  Biso   1.000  C
  C120     1.0000 0.79643  0.49170  0.54107  Biso   1.000  C
  C121     1.0000 0.77163  0.36622  0.51964  Biso   1.000  C
  C122     1.0000 0.75262  0.35842  0.45125  Biso   1.000  C
  H60      1.0000 0.75480  0.43300  0.41820  Biso   1.000  H
  C123     1.0000 0.76949  0.25706  0.56935  Biso   1.000  C
  H61      1.0000 0.78290  0.26240  0.61590  Biso   1.000  H
  C124     1.0000 0.92048  0.62279  0.51256  Biso   1.000  C
  C125     1.0000 0.96229  0.55884  0.50529  Biso   1.000  C
  C126     1.0000 0.96531  0.42246  0.49253  Biso   1.000  C
  H62      1.0000 0.94180  0.36640  0.48790  Biso   1.000  H
  C127     1.0000 0.99506  0.63535  0.51376  Biso   1.000  C
  H63      1.0000 0.99240  0.73060  0.52420  Biso   1.000  H
  C128     1.0000 0.65219  0.54025  0.70920  Biso   1.000  C
  H64      1.0000 0.62690  0.57390  0.69020  Biso   1.000  H
  Co8      1.0000 0.65230  0.80032  0.48706  Biso   1.000  Co
  O57      1.0000 0.71428  0.61726  0.55666  Biso   1.000  O
  O58      1.0000 0.65283  0.69785  0.58182  Biso   1.000  O
  O59      1.0000 0.72737  0.31542  0.89990  Biso   1.000  O
  O60      1.0000 0.65952  0.31979  0.90290  Biso   1.000  O
  O61      1.0000 0.88997  0.55060  0.50414  Biso   1.000  O
  O62      1.0000 0.91730  0.74245  0.52915  Biso   1.000  O
  O63      1.0000 0.79606  0.59297  0.49489  Biso   1.000  O
  O64      1.0000 0.81714  0.49259  0.59851  Biso   1.000  O
  Co9      1.0000 0.25000  0.75000  0.00000  Biso   1.000  Co
  Co10     1.0000 0.75000  0.75000  0.50000  Biso   1.000  Co
  Co11     1.0000 0.25000  0.25000  0.50000  Biso   1.000  Co
  Co12     1.0000 0.75000  0.25000  0.00000  Biso   1.000  Co
