data_image0
_cell_length_a       12.1311
_cell_length_b       14.5924
_cell_length_c       20.4168
_cell_angle_alpha    90
_cell_angle_beta     90
_cell_angle_gamma    90

_symmetry_space_group_name_H-M    "P 1"
_symmetry_int_tables_number       1

loop_
  _symmetry_equiv_pos_as_xyz
  'x, y, z'

loop_
  _atom_site_label
  _atom_site_occupancy
  _atom_site_fract_x
  _atom_site_fract_y
  _atom_site_fract_z
  _atom_site_thermal_displace_type
  _atom_site_B_iso_or_equiv
  _atom_site_type_symbol
  Cu1      1.0000 0.42810  0.36459  0.19988  Biso   1.000  Cu
  O1       1.0000 0.52850  0.27149  0.16361  Biso   1.000  O
  O2       1.0000 0.97120  0.95654  0.16265  Biso   1.000  O
  O3       1.0000 0.85650  0.96274  0.24795  Biso   1.000  O
  O4       1.0000 0.64740  0.26909  0.24791  Biso   1.000  O
  N1       1.0000 0.70590  0.13110  0.88212  Biso   1.000  N
  N2       1.0000 0.82120  0.13190  0.88410  Biso   1.000  N
  N3       1.0000 0.76110  0.12590  0.98509  Biso   1.000  N
  C1       1.0000 0.75750  0.12200  0.05530  Biso   1.000  C
  C2       1.0000 0.82420  0.05900  0.08906  Biso   1.000  C
  H1       1.0000 0.87140  0.02050  0.06600  Biso   1.000  H
  C3       1.0000 0.75080  0.11630  0.19070  Biso   1.000  C
  H2       1.0000 0.74990  0.11540  0.23630  Biso   1.000  H
  C4       1.0000 0.68740  0.17930  0.08885  Biso   1.000  C
  H3       1.0000 0.64150  0.21910  0.06600  Biso   1.000  H
  C5       1.0000 0.61290  0.24490  0.19221  Biso   1.000  C
  C6       1.0000 0.88700  0.98530  0.19198  Biso   1.000  C
  C7       1.0000 0.68520  0.17780  0.15627  Biso   1.000  C
  C8       1.0000 0.81950  0.05470  0.15512  Biso   1.000  C
  C9       1.0000 0.85030  0.12720  0.94532  Biso   1.000  C
  H4       1.0000 0.92290  0.12490  0.95980  Biso   1.000  H
  C10      1.0000 0.67330  0.12940  0.94280  Biso   1.000  C
  H5       1.0000 0.59990  0.13030  0.95590  Biso   1.000  H
  Cu2      1.0000 0.07190  0.13541  0.69988  Biso   1.000  Cu
  O5       1.0000 0.97150  0.22851  0.66361  Biso   1.000  O
  O6       1.0000 0.52880  0.54346  0.66265  Biso   1.000  O
  O7       1.0000 0.64350  0.53726  0.74795  Biso   1.000  O
  O8       1.0000 0.85260  0.23091  0.74791  Biso   1.000  O
  N4       1.0000 0.79410  0.36890  0.38212  Biso   1.000  N
  N5       1.0000 0.67880  0.36810  0.38410  Biso   1.000  N
  N6       1.0000 0.73890  0.37410  0.48509  Biso   1.000  N
  C11      1.0000 0.74250  0.37800  0.55530  Biso   1.000  C
  C12      1.0000 0.67580  0.44100  0.58906  Biso   1.000  C
  H6       1.0000 0.62860  0.47950  0.56600  Biso   1.000  H
  C13      1.0000 0.74920  0.38370  0.69070  Biso   1.000  C
  H7       1.0000 0.75010  0.38460  0.73630  Biso   1.000  H
  C14      1.0000 0.81260  0.32070  0.58885  Biso   1.000  C
  H8       1.0000 0.85850  0.28090  0.56600  Biso   1.000  H
  C15      1.0000 0.88710  0.25510  0.69221  Biso   1.000  C
  C16      1.0000 0.61300  0.51470  0.69198  Biso   1.000  C
  C17      1.0000 0.81480  0.32220  0.65627  Biso   1.000  C
  C18      1.0000 0.68050  0.44530  0.65512  Biso   1.000  C
  C19      1.0000 0.64970  0.37280  0.44532  Biso   1.000  C
  H9       1.0000 0.57710  0.37510  0.45980  Biso   1.000  H
  C20      1.0000 0.82670  0.37060  0.44280  Biso   1.000  C
  H10      1.0000 0.90010  0.36970  0.45590  Biso   1.000  H
  Cu3      1.0000 0.57190  0.36459  0.30012  Biso   1.000  Cu
  O9       1.0000 0.47150  0.27149  0.33639  Biso   1.000  O
  O10      1.0000 0.02880  0.95654  0.33735  Biso   1.000  O
  O11      1.0000 0.14350  0.96274  0.25205  Biso   1.000  O
  O12      1.0000 0.35260  0.26909  0.25209  Biso   1.000  O
  N7       1.0000 0.29410  0.13110  0.61788  Biso   1.000  N
  N8       1.0000 0.17880  0.13190  0.61590  Biso   1.000  N
  N9       1.0000 0.23890  0.12590  0.51491  Biso   1.000  N
  C21      1.0000 0.24250  0.12200  0.44470  Biso   1.000  C
  C22      1.0000 0.17580  0.05900  0.41094  Biso   1.000  C
  H11      1.0000 0.12860  0.02050  0.43400  Biso   1.000  H
  C23      1.0000 0.24920  0.11630  0.30930  Biso   1.000  C
  H12      1.0000 0.25010  0.11540  0.26370  Biso   1.000  H
  C24      1.0000 0.31260  0.17930  0.41115  Biso   1.000  C
  H13      1.0000 0.35850  0.21910  0.43400  Biso   1.000  H
  C25      1.0000 0.38710  0.24490  0.30779  Biso   1.000  C
  C26      1.0000 0.11300  0.98530  0.30802  Biso   1.000  C
  C27      1.0000 0.31480  0.17780  0.34373  Biso   1.000  C
  C28      1.0000 0.18050  0.05470  0.34488  Biso   1.000  C
  C29      1.0000 0.14970  0.12720  0.55468  Biso   1.000  C
  H14      1.0000 0.07710  0.12490  0.54020  Biso   1.000  H
  C30      1.0000 0.32670  0.12940  0.55720  Biso   1.000  C
  H15      1.0000 0.40010  0.13030  0.54410  Biso   1.000  H
  Cu4      1.0000 0.92810  0.13541  0.80012  Biso   1.000  Cu
  O13      1.0000 0.02850  0.22851  0.83639  Biso   1.000  O
  O14      1.0000 0.47120  0.54346  0.83735  Biso   1.000  O
  O15      1.0000 0.35650  0.53726  0.75205  Biso   1.000  O
  O16      1.0000 0.14740  0.23091  0.75209  Biso   1.000  O
  N10      1.0000 0.20590  0.36890  0.11788  Biso   1.000  N
  N11      1.0000 0.32120  0.36810  0.11590  Biso   1.000  N
  N12      1.0000 0.26110  0.37410  0.01491  Biso   1.000  N
  C31      1.0000 0.25750  0.37800  0.94470  Biso   1.000  C
  C32      1.0000 0.32420  0.44100  0.91094  Biso   1.000  C
  H16      1.0000 0.37140  0.47950  0.93400  Biso   1.000  H
  C33      1.0000 0.25080  0.38370  0.80930  Biso   1.000  C
  H17      1.0000 0.24990  0.38460  0.76370  Biso   1.000  H
  C34      1.0000 0.18740  0.32070  0.91115  Biso   1.000  C
  H18      1.0000 0.14150  0.28090  0.93400  Biso   1.000  H
  C35      1.0000 0.11290  0.25510  0.80779  Biso   1.000  C
  C36      1.0000 0.38700  0.51470  0.80802  Biso   1.000  C
  C37      1.0000 0.18520  0.32220  0.84373  Biso   1.000  C
  C38      1.0000 0.31950  0.44530  0.84488  Biso   1.000  C
  C39      1.0000 0.35030  0.37280  0.05468  Biso   1.000  C
  H19      1.0000 0.42290  0.37510  0.04020  Biso   1.000  H
  C40      1.0000 0.17330  0.37060  0.05720  Biso   1.000  C
  H20      1.0000 0.09990  0.36970  0.04410  Biso   1.000  H
  Cu5      1.0000 0.57190  0.63541  0.80012  Biso   1.000  Cu
  O17      1.0000 0.47150  0.72851  0.83639  Biso   1.000  O
  O18      1.0000 0.02880  0.04346  0.83735  Biso   1.000  O
  O19      1.0000 0.14350  0.03726  0.75205  Biso   1.000  O
  O20      1.0000 0.35260  0.73091  0.75209  Biso   1.000  O
  N13      1.0000 0.29410  0.86890  0.11788  Biso   1.000  N
  N14      1.0000 0.17880  0.86810  0.11590  Biso   1.000  N
  N15      1.0000 0.23890  0.87410  0.01491  Biso   1.000  N
  C41      1.0000 0.24250  0.87800  0.94470  Biso   1.000  C
  C42      1.0000 0.17580  0.94100  0.91094  Biso   1.000  C
  H21      1.0000 0.12860  0.97950  0.93400  Biso   1.000  H
  C43      1.0000 0.24920  0.88370  0.80930  Biso   1.000  C
  H22      1.0000 0.25010  0.88460  0.76370  Biso   1.000  H
  C44      1.0000 0.31260  0.82070  0.91115  Biso   1.000  C
  H23      1.0000 0.35850  0.78090  0.93400  Biso   1.000  H
  C45      1.0000 0.38710  0.75510  0.80779  Biso   1.000  C
  C46      1.0000 0.11300  0.01470  0.80802  Biso   1.000  C
  C47      1.0000 0.31480  0.82220  0.84373  Biso   1.000  C
  C48      1.0000 0.18050  0.94530  0.84488  Biso   1.000  C
  C49      1.0000 0.14970  0.87280  0.05468  Biso   1.000  C
  H24      1.0000 0.07710  0.87510  0.04020  Biso   1.000  H
  C50      1.0000 0.32670  0.87060  0.05720  Biso   1.000  C
  H25      1.0000 0.40010  0.86970  0.04410  Biso   1.000  H
  Cu6      1.0000 0.92810  0.86459  0.30012  Biso   1.000  Cu
  O21      1.0000 0.02850  0.77149  0.33639  Biso   1.000  O
  O22      1.0000 0.47120  0.45654  0.33735  Biso   1.000  O
  O23      1.0000 0.35650  0.46274  0.25205  Biso   1.000  O
  O24      1.0000 0.14740  0.76909  0.25209  Biso   1.000  O
  N16      1.0000 0.20590  0.63110  0.61788  Biso   1.000  N
  N17      1.0000 0.32120  0.63190  0.61590  Biso   1.000  N
  N18      1.0000 0.26110  0.62590  0.51491  Biso   1.000  N
  C51      1.0000 0.25750  0.62200  0.44470  Biso   1.000  C
  C52      1.0000 0.32420  0.55900  0.41094  Biso   1.000  C
  H26      1.0000 0.37140  0.52050  0.43400  Biso   1.000  H
  C53      1.0000 0.25080  0.61630  0.30930  Biso   1.000  C
  H27      1.0000 0.24990  0.61540  0.26370  Biso   1.000  H
  C54      1.0000 0.18740  0.67930  0.41115  Biso   1.000  C
  H28      1.0000 0.14150  0.71910  0.43400  Biso   1.000  H
  C55      1.0000 0.11290  0.74490  0.30779  Biso   1.000  C
  C56      1.0000 0.38700  0.48530  0.30802  Biso   1.000  C
  C57      1.0000 0.18520  0.67780  0.34373  Biso   1.000  C
  C58      1.0000 0.31950  0.55470  0.34488  Biso   1.000  C
  C59      1.0000 0.35030  0.62720  0.55468  Biso   1.000  C
  H29      1.0000 0.42290  0.62490  0.54020  Biso   1.000  H
  C60      1.0000 0.17330  0.62940  0.55720  Biso   1.000  C
  H30      1.0000 0.09990  0.63030  0.54410  Biso   1.000  H
  Cu7      1.0000 0.42810  0.63541  0.69988  Biso   1.000  Cu
  O25      1.0000 0.52850  0.72851  0.66361  Biso   1.000  O
  O26      1.0000 0.97120  0.04346  0.66265  Biso   1.000  O
  O27      1.0000 0.85650  0.03726  0.74795  Biso   1.000  O
  O28      1.0000 0.64740  0.73091  0.74791  Biso   1.000  O
  N19      1.0000 0.70590  0.86890  0.38212  Biso   1.000  N
  N20      1.0000 0.82120  0.86810  0.38410  Biso   1.000  N
  N21      1.0000 0.76110  0.87410  0.48509  Biso   1.000  N
  C61      1.0000 0.75750  0.87800  0.55530  Biso   1.000  C
  C62      1.0000 0.82420  0.94100  0.58906  Biso   1.000  C
  H31      1.0000 0.87140  0.97950  0.56600  Biso   1.000  H
  C63      1.0000 0.75080  0.88370  0.69070  Biso   1.000  C
  H32      1.0000 0.74990  0.88460  0.73630  Biso   1.000  H
  C64      1.0000 0.68740  0.82070  0.58885  Biso   1.000  C
  H33      1.0000 0.64150  0.78090  0.56600  Biso   1.000  H
  C65      1.0000 0.61290  0.75510  0.69221  Biso   1.000  C
  C66      1.0000 0.88700  0.01470  0.69198  Biso   1.000  C
  C67      1.0000 0.68520  0.82220  0.65627  Biso   1.000  C
  C68      1.0000 0.81950  0.94530  0.65512  Biso   1.000  C
  C69      1.0000 0.85030  0.87280  0.44532  Biso   1.000  C
  H34      1.0000 0.92290  0.87510  0.45980  Biso   1.000  H
  C70      1.0000 0.67330  0.87060  0.44280  Biso   1.000  C
  H35      1.0000 0.59990  0.86970  0.45590  Biso   1.000  H
  Cu8      1.0000 0.07190  0.86459  0.19988  Biso   1.000  Cu
  O29      1.0000 0.97150  0.77149  0.16361  Biso   1.000  O
  O30      1.0000 0.52880  0.45654  0.16265  Biso   1.000  O
  O31      1.0000 0.64350  0.46274  0.24795  Biso   1.000  O
  O32      1.0000 0.85260  0.76909  0.24791  Biso   1.000  O
  N22      1.0000 0.79410  0.63110  0.88212  Biso   1.000  N
  N23      1.0000 0.67880  0.63190  0.88410  Biso   1.000  N
  N24      1.0000 0.73890  0.62590  0.98509  Biso   1.000  N
  C71      1.0000 0.74250  0.62200  0.05530  Biso   1.000  C
  C72      1.0000 0.67580  0.55900  0.08906  Biso   1.000  C
  H36      1.0000 0.62860  0.52050  0.06600  Biso   1.000  H
  C73      1.0000 0.74920  0.61630  0.19070  Biso   1.000  C
  H37      1.0000 0.75010  0.61540  0.23630  Biso   1.000  H
  C74      1.0000 0.81260  0.67930  0.08885  Biso   1.000  C
  H38      1.0000 0.85850  0.71910  0.06600  Biso   1.000  H
  C75      1.0000 0.88710  0.74490  0.19221  Biso   1.000  C
  C76      1.0000 0.61300  0.48530  0.19198  Biso   1.000  C
  C77      1.0000 0.81480  0.67780  0.15627  Biso   1.000  C
  C78      1.0000 0.68050  0.55470  0.15512  Biso   1.000  C
  C79      1.0000 0.64970  0.62720  0.94532  Biso   1.000  C
  H39      1.0000 0.57710  0.62490  0.95980  Biso   1.000  H
  C80      1.0000 0.82670  0.62940  0.94280  Biso   1.000  C
  H40      1.0000 0.90010  0.63030  0.95590  Biso   1.000  H
