data_image0
_cell_length_a       10.9121
_cell_length_b       11.842
_cell_length_c       14.5557
_cell_angle_alpha    90
_cell_angle_beta     109.471
_cell_angle_gamma    90

_symmetry_space_group_name_H-M    "P 1"
_symmetry_int_tables_number       1

loop_
  _symmetry_equiv_pos_as_xyz
  'x, y, z'

loop_
  _atom_site_label
  _atom_site_occupancy
  _atom_site_fract_x
  _atom_site_fract_y
  _atom_site_fract_z
  _atom_site_thermal_displace_type
  _atom_site_B_iso_or_equiv
  _atom_site_type_symbol
  Cu1      1.0000 0.09700  0.57655  0.02556  Biso   1.000  Cu
  O1       1.0000 0.82510  0.97350  0.36402  Biso   1.000  O
  O2       1.0000 0.82430  0.51980  0.04991  Biso   1.000  O
  O3       1.0000 0.99010  0.85030  0.40395  Biso   1.000  O
  O4       1.0000 0.98880  0.64410  0.09560  Biso   1.000  O
  N1       1.0000 0.26480  0.68610  0.06920  Biso   1.000  N
  N2       1.0000 0.46600  0.74280  0.12250  Biso   1.000  N
  N3       1.0000 0.26400  0.80210  0.07850  Biso   1.000  N
  C1       1.0000 0.60700  0.74310  0.15600  Biso   1.000  C
  C2       1.0000 0.67110  0.67270  0.11210  Biso   1.000  C
  H1       1.0000 0.62510  0.62360  0.06280  Biso   1.000  H
  C3       1.0000 0.87370  0.74630  0.22070  Biso   1.000  C
  H2       1.0000 0.96400  0.74760  0.24220  Biso   1.000  H
  C4       1.0000 0.87910  0.60770  0.09190  Biso   1.000  C
  C5       1.0000 0.80610  0.67640  0.14330  Biso   1.000  C
  C6       1.0000 0.87970  0.88460  0.35150  Biso   1.000  C
  C7       1.0000 0.38470  0.65200  0.09570  Biso   1.000  C
  H3       1.0000 0.41110  0.57730  0.09640  Biso   1.000  H
  C8       1.0000 0.67270  0.81270  0.23330  Biso   1.000  C
  H4       1.0000 0.62720  0.85800  0.26310  Biso   1.000  H
  C9       1.0000 0.38630  0.83340  0.11140  Biso   1.000  C
  H5       1.0000 0.41450  0.90750  0.12510  Biso   1.000  H
  C10      1.0000 0.80760  0.81330  0.26560  Biso   1.000  C
  Cu2      1.0000 0.90300  0.07655  0.47444  Biso   1.000  Cu
  O5       1.0000 0.17490  0.47350  0.13598  Biso   1.000  O
  O6       1.0000 0.17570  0.01980  0.45009  Biso   1.000  O
  O7       1.0000 0.00990  0.35030  0.09605  Biso   1.000  O
  O8       1.0000 0.01120  0.14410  0.40440  Biso   1.000  O
  N4       1.0000 0.73520  0.18610  0.43080  Biso   1.000  N
  N5       1.0000 0.53400  0.24280  0.37750  Biso   1.000  N
  N6       1.0000 0.73600  0.30210  0.42150  Biso   1.000  N
  C11      1.0000 0.39300  0.24310  0.34400  Biso   1.000  C
  C12      1.0000 0.32890  0.17270  0.38790  Biso   1.000  C
  H6       1.0000 0.37490  0.12360  0.43720  Biso   1.000  H
  C13      1.0000 0.12630  0.24630  0.27930  Biso   1.000  C
  H7       1.0000 0.03600  0.24760  0.25780  Biso   1.000  H
  C14      1.0000 0.12090  0.10770  0.40810  Biso   1.000  C
  C15      1.0000 0.19390  0.17640  0.35670  Biso   1.000  C
  C16      1.0000 0.12030  0.38460  0.14850  Biso   1.000  C
  C17      1.0000 0.61530  0.15200  0.40430  Biso   1.000  C
  H8       1.0000 0.58890  0.07730  0.40360  Biso   1.000  H
  C18      1.0000 0.32730  0.31270  0.26670  Biso   1.000  C
  H9       1.0000 0.37280  0.35800  0.23690  Biso   1.000  H
  C19      1.0000 0.61370  0.33340  0.38860  Biso   1.000  C
  H10      1.0000 0.58550  0.40750  0.37490  Biso   1.000  H
  C20      1.0000 0.19240  0.31330  0.23440  Biso   1.000  C
  Cu3      1.0000 0.90300  0.42345  0.97444  Biso   1.000  Cu
  O9       1.0000 0.17490  0.02650  0.63598  Biso   1.000  O
  O10      1.0000 0.17570  0.48020  0.95009  Biso   1.000  O
  O11      1.0000 0.00990  0.14970  0.59605  Biso   1.000  O
  O12      1.0000 0.01120  0.35590  0.90440  Biso   1.000  O
  N7       1.0000 0.73520  0.31390  0.93080  Biso   1.000  N
  N8       1.0000 0.53400  0.25720  0.87750  Biso   1.000  N
  N9       1.0000 0.73600  0.19790  0.92150  Biso   1.000  N
  C21      1.0000 0.39300  0.25690  0.84400  Biso   1.000  C
  C22      1.0000 0.32890  0.32730  0.88790  Biso   1.000  C
  H11      1.0000 0.37490  0.37640  0.93720  Biso   1.000  H
  C23      1.0000 0.12630  0.25370  0.77930  Biso   1.000  C
  H12      1.0000 0.03600  0.25240  0.75780  Biso   1.000  H
  C24      1.0000 0.12090  0.39230  0.90810  Biso   1.000  C
  C25      1.0000 0.19390  0.32360  0.85670  Biso   1.000  C
  C26      1.0000 0.12030  0.11540  0.64850  Biso   1.000  C
  C27      1.0000 0.61530  0.34800  0.90430  Biso   1.000  C
  H13      1.0000 0.58890  0.42270  0.90360  Biso   1.000  H
  C28      1.0000 0.32730  0.18730  0.76670  Biso   1.000  C
  H14      1.0000 0.37280  0.14200  0.73690  Biso   1.000  H
  C29      1.0000 0.61370  0.16660  0.88860  Biso   1.000  C
  H15      1.0000 0.58550  0.09250  0.87490  Biso   1.000  H
  C30      1.0000 0.19240  0.18670  0.73440  Biso   1.000  C
  Cu4      1.0000 0.09700  0.92345  0.52556  Biso   1.000  Cu
  O13      1.0000 0.82510  0.52650  0.86402  Biso   1.000  O
  O14      1.0000 0.82430  0.98020  0.54991  Biso   1.000  O
  O15      1.0000 0.99010  0.64970  0.90395  Biso   1.000  O
  O16      1.0000 0.98880  0.85590  0.59560  Biso   1.000  O
  N10      1.0000 0.26480  0.81390  0.56920  Biso   1.000  N
  N11      1.0000 0.46600  0.75720  0.62250  Biso   1.000  N
  N12      1.0000 0.26400  0.69790  0.57850  Biso   1.000  N
  C31      1.0000 0.60700  0.75690  0.65600  Biso   1.000  C
  C32      1.0000 0.67110  0.82730  0.61210  Biso   1.000  C
  H16      1.0000 0.62510  0.87640  0.56280  Biso   1.000  H
  C33      1.0000 0.87370  0.75370  0.72070  Biso   1.000  C
  H17      1.0000 0.96400  0.75240  0.74220  Biso   1.000  H
  C34      1.0000 0.87910  0.89230  0.59190  Biso   1.000  C
  C35      1.0000 0.80610  0.82360  0.64330  Biso   1.000  C
  C36      1.0000 0.87970  0.61540  0.85150  Biso   1.000  C
  C37      1.0000 0.38470  0.84800  0.59570  Biso   1.000  C
  H18      1.0000 0.41110  0.92270  0.59640  Biso   1.000  H
  C38      1.0000 0.67270  0.68730  0.73330  Biso   1.000  C
  H19      1.0000 0.62720  0.64200  0.76310  Biso   1.000  H
  C39      1.0000 0.38630  0.66660  0.61140  Biso   1.000  C
  H20      1.0000 0.41450  0.59250  0.62510  Biso   1.000  H
  C40      1.0000 0.80760  0.68670  0.76560  Biso   1.000  C
