data_OTARIL_clean
_audit_creation_date              2014-07-02
_audit_creation_method            'Materials Studio'
_symmetry_space_group_name_H-M    'P1'
_symmetry_Int_Tables_number       1
_symmetry_cell_setting            triclinic
loop_
_symmetry_equiv_pos_as_xyz
  x,y,z
_cell_length_a                    13.9240
_cell_length_b                    13.9240
_cell_length_c                    29.0800
_cell_angle_alpha                 79.9272
_cell_angle_beta                  79.9272
_cell_angle_gamma                 63.4660
loop_
_atom_site_label
_atom_site_type_symbol
_atom_site_fract_x
_atom_site_fract_y
_atom_site_fract_z
_atom_site_U_iso_or_equiv
_atom_site_adp_type
_atom_site_occupancy
Zn1    Zn    0.09343   0.45467   0.27771   0.01267  Uiso   1.00
Zn2    Zn    0.54533   0.90657   0.22229   0.01267  Uiso   1.00
Zn3    Zn    0.90657   0.54533   0.72229   0.01267  Uiso   1.00
Zn4    Zn    0.45467   0.09343   0.77771   0.01267  Uiso   1.00
H1     H     0.84910   0.60070   0.30250   0.01267  Uiso   1.00
H2     H     0.13300   0.31040   0.38290   0.01267  Uiso   1.00
H3     H     0.08730   0.22270   0.45380   0.01267  Uiso   1.00
H4     H     0.91240   0.27200   0.48570   0.01267  Uiso   1.00
H5     H     0.76650   0.41270   0.44910   0.01267  Uiso   1.00
H6     H     0.66230   0.65910   0.35790   0.01267  Uiso   1.00
H7     H     0.65480   0.56800   0.39670   0.01267  Uiso   1.00
H8     H     0.53660   0.68280   0.30710   0.01267  Uiso   1.00
H9     H     0.47690   0.61930   0.25490   0.01267  Uiso   1.00
H10    H     0.69660   0.31680   0.28910   0.01267  Uiso   1.00
H11    H     0.75450   0.37710   0.34240   0.01267  Uiso   1.00
H12    H     0.31020   0.24240   0.28780   0.01267  Uiso   1.00
H13    H     0.15490   0.60170   0.33240   0.01267  Uiso   1.00
H14    H     0.24730   0.65270   0.37450   0.01267  Uiso   1.00
H15    H     0.42230   0.53130   0.39440   0.01267  Uiso   1.00
H16    H     0.49860   0.35420   0.37700   0.01267  Uiso   1.00
H17    H     0.49060   0.12640   0.31150   0.01267  Uiso   1.00
H18    H     0.55500   0.18600   0.32280   0.01267  Uiso   1.00
H19    H     0.33330   0.21710   0.40500   0.01267  Uiso   1.00
H20    H     0.34420   0.13920   0.48100   0.01267  Uiso   1.00
H21    H     0.64900   0.94180   0.44870   0.01267  Uiso   1.00
H22    H     0.64660   0.02260   0.37330   0.01267  Uiso   1.00
H23    H     0.87050   0.80570   0.17260   0.01267  Uiso   1.00
H24    H     0.87270   0.96190   0.13030   0.01267  Uiso   1.00
H25    H     0.14670   0.89870   0.18380   0.01267  Uiso   1.00
H26    H     0.14330   0.74090   0.22390   0.01267  Uiso   1.00
H27    H     0.95810   0.10690   0.20720   0.01267  Uiso   1.00
H28    H     0.99730   0.21350   0.24670   0.01267  Uiso   1.00
H29    H     0.22810   0.21250   0.14190   0.01267  Uiso   1.00
H30    H     0.18230   0.11370   0.10100   0.01267  Uiso   1.00
H31    H     0.39930   0.15090   0.19750   0.01267  Uiso   1.00
H32    H     0.68960   0.86700   0.11710   0.01267  Uiso   1.00
H33    H     0.77730   0.91270   0.04620   0.01267  Uiso   1.00
H34    H     0.72800   0.08760   0.01430   0.01267  Uiso   1.00
H35    H     0.58730   0.23350   0.05090   0.01267  Uiso   1.00
H36    H     0.34090   0.33770   0.14210   0.01267  Uiso   1.00
H37    H     0.43200   0.34520   0.10330   0.01267  Uiso   1.00
H38    H     0.31720   0.46340   0.19290   0.01267  Uiso   1.00
H39    H     0.38070   0.52310   0.24510   0.01267  Uiso   1.00
H40    H     0.68320   0.30340   0.21090   0.01267  Uiso   1.00
H41    H     0.62290   0.24550   0.15760   0.01267  Uiso   1.00
H42    H     0.75760   0.68980   0.21220   0.01267  Uiso   1.00
H43    H     0.39830   0.84510   0.16760   0.01267  Uiso   1.00
H44    H     0.34730   0.75270   0.12550   0.01267  Uiso   1.00
H45    H     0.46870   0.57770   0.10560   0.01267  Uiso   1.00
H46    H     0.64580   0.50140   0.12300   0.01267  Uiso   1.00
H47    H     0.87360   0.50940   0.18850   0.01267  Uiso   1.00
H48    H     0.81400   0.44500   0.17720   0.01267  Uiso   1.00
H49    H     0.78290   0.66670   0.09500   0.01267  Uiso   1.00
H50    H     0.86080   0.65580   0.01900   0.01267  Uiso   1.00
H51    H     0.05820   0.35100   0.05130   0.01267  Uiso   1.00
H52    H     0.97740   0.35340   0.12670   0.01267  Uiso   1.00
H53    H     0.19430   0.12950   0.32740   0.01267  Uiso   1.00
H54    H     0.03810   0.12730   0.36970   0.01267  Uiso   1.00
H55    H     0.10130   0.85330   0.31620   0.01267  Uiso   1.00
H56    H     0.25910   0.85670   0.27610   0.01267  Uiso   1.00
H57    H     0.89310   0.04190   0.29280   0.01267  Uiso   1.00
H58    H     0.78650   0.00270   0.25330   0.01267  Uiso   1.00
H59    H     0.78750   0.77190   0.35810   0.01267  Uiso   1.00
H60    H     0.88630   0.81770   0.39900   0.01267  Uiso   1.00
H61    H     0.15090   0.39930   0.69750   0.01267  Uiso   1.00
H62    H     0.86700   0.68960   0.61710   0.01267  Uiso   1.00
H63    H     0.91270   0.77730   0.54620   0.01267  Uiso   1.00
H64    H     0.08760   0.72800   0.51430   0.01267  Uiso   1.00
H65    H     0.23350   0.58730   0.55090   0.01267  Uiso   1.00
H66    H     0.33770   0.34090   0.64210   0.01267  Uiso   1.00
H67    H     0.34520   0.43200   0.60330   0.01267  Uiso   1.00
H68    H     0.46340   0.31720   0.69290   0.01267  Uiso   1.00
H69    H     0.52310   0.38070   0.74510   0.01267  Uiso   1.00
H70    H     0.30340   0.68320   0.71090   0.01267  Uiso   1.00
H71    H     0.24550   0.62290   0.65760   0.01267  Uiso   1.00
H72    H     0.68980   0.75760   0.71220   0.01267  Uiso   1.00
H73    H     0.84510   0.39830   0.66760   0.01267  Uiso   1.00
H74    H     0.75270   0.34730   0.62550   0.01267  Uiso   1.00
H75    H     0.57770   0.46870   0.60560   0.01267  Uiso   1.00
H76    H     0.50140   0.64580   0.62300   0.01267  Uiso   1.00
H77    H     0.50940   0.87360   0.68850   0.01267  Uiso   1.00
H78    H     0.44500   0.81400   0.67720   0.01267  Uiso   1.00
H79    H     0.66670   0.78290   0.59500   0.01267  Uiso   1.00
H80    H     0.65580   0.86080   0.51900   0.01267  Uiso   1.00
H81    H     0.35100   0.05820   0.55130   0.01267  Uiso   1.00
H82    H     0.35340   0.97740   0.62670   0.01267  Uiso   1.00
H83    H     0.12950   0.19430   0.82740   0.01267  Uiso   1.00
H84    H     0.12730   0.03810   0.86970   0.01267  Uiso   1.00
H85    H     0.85330   0.10130   0.81620   0.01267  Uiso   1.00
H86    H     0.85670   0.25910   0.77610   0.01267  Uiso   1.00
H87    H     0.04190   0.89310   0.79280   0.01267  Uiso   1.00
H88    H     0.00270   0.78650   0.75330   0.01267  Uiso   1.00
H89    H     0.77190   0.78750   0.85810   0.01267  Uiso   1.00
H90    H     0.81770   0.88630   0.89900   0.01267  Uiso   1.00
H91    H     0.60070   0.84910   0.80250   0.01267  Uiso   1.00
H92    H     0.31040   0.13300   0.88290   0.01267  Uiso   1.00
H93    H     0.22270   0.08730   0.95380   0.01267  Uiso   1.00
H94    H     0.27200   0.91240   0.98570   0.01267  Uiso   1.00
H95    H     0.41270   0.76650   0.94910   0.01267  Uiso   1.00
H96    H     0.65910   0.66230   0.85790   0.01267  Uiso   1.00
H97    H     0.56800   0.65480   0.89670   0.01267  Uiso   1.00
H98    H     0.68280   0.53660   0.80710   0.01267  Uiso   1.00
H99    H     0.61930   0.47690   0.75490   0.01267  Uiso   1.00
H100   H     0.31680   0.69660   0.78910   0.01267  Uiso   1.00
H101   H     0.37710   0.75450   0.84240   0.01267  Uiso   1.00
H102   H     0.24240   0.31020   0.78780   0.01267  Uiso   1.00
H103   H     0.60170   0.15490   0.83240   0.01267  Uiso   1.00
H104   H     0.65270   0.24730   0.87450   0.01267  Uiso   1.00
H105   H     0.53130   0.42230   0.89440   0.01267  Uiso   1.00
H106   H     0.35420   0.49860   0.87700   0.01267  Uiso   1.00
H107   H     0.12640   0.49060   0.81150   0.01267  Uiso   1.00
H108   H     0.18600   0.55500   0.82280   0.01267  Uiso   1.00
H109   H     0.21710   0.33330   0.90500   0.01267  Uiso   1.00
H110   H     0.13920   0.34420   0.98100   0.01267  Uiso   1.00
H111   H     0.94180   0.64900   0.94870   0.01267  Uiso   1.00
H112   H     0.02260   0.64660   0.87330   0.01267  Uiso   1.00
H113   H     0.80570   0.87050   0.67260   0.01267  Uiso   1.00
H114   H     0.96190   0.87270   0.63030   0.01267  Uiso   1.00
H115   H     0.89870   0.14670   0.68380   0.01267  Uiso   1.00
H116   H     0.74090   0.14330   0.72390   0.01267  Uiso   1.00
H117   H     0.10690   0.95810   0.70720   0.01267  Uiso   1.00
H118   H     0.21350   0.99730   0.74670   0.01267  Uiso   1.00
H119   H     0.21250   0.22810   0.64190   0.01267  Uiso   1.00
H120   H     0.11370   0.18230   0.60100   0.01267  Uiso   1.00
C1     C     0.87258   0.54778   0.32769   0.01267  Uiso   1.00
C2     C     0.86962   0.44362   0.39381   0.01267  Uiso   1.00
C3     C     0.97544   0.41484   0.37414   0.01267  Uiso   1.00
C4     C     0.06154   0.33074   0.39571   0.01267  Uiso   1.00
C5     C     0.03280   0.27920   0.43804   0.01267  Uiso   1.00
C6     C     0.92610   0.30910   0.45744   0.01267  Uiso   1.00
C7     C     0.83812   0.39272   0.43639   0.01267  Uiso   1.00
C8     C     0.68687   0.58167   0.36529   0.01267  Uiso   1.00
C9     C     0.65044   0.53864   0.33004   0.01267  Uiso   1.00
C10    C     0.56817   0.60937   0.30383   0.01267  Uiso   1.00
C11    C     0.53231   0.57111   0.27246   0.01267  Uiso   1.00
C12    C     0.57782   0.46280   0.26708   0.01267  Uiso   1.00
C13    C     0.66394   0.38974   0.29332   0.01267  Uiso   1.00
C14    C     0.69931   0.42551   0.32467   0.01267  Uiso   1.00
C15    C     0.31269   0.29443   0.30312   0.01267  Uiso   1.00
C16    C     0.37230   0.37472   0.34272   0.01267  Uiso   1.00
C17    C     0.26988   0.44672   0.33036   0.01267  Uiso   1.00
C18    C     0.22232   0.55292   0.34139   0.01267  Uiso   1.00
C19    C     0.27834   0.58294   0.36590   0.01267  Uiso   1.00
C20    C     0.38495   0.50815   0.37873   0.01267  Uiso   1.00
C21    C     0.43141   0.40361   0.36804   0.01267  Uiso   1.00
C22    C     0.48974   0.17530   0.33174   0.01267  Uiso   1.00
C23    C     0.48797   0.12717   0.38071   0.01267  Uiso   1.00
C24    C     0.39808   0.16148   0.41362   0.01267  Uiso   1.00
C25    C     0.40501   0.11281   0.45937   0.01267  Uiso   1.00
C26    C     0.49727   0.02667   0.47511   0.01267  Uiso   1.00
C27    C     0.58433   0.99813   0.44027   0.01267  Uiso   1.00
C28    C     0.58431   0.04511   0.39435   0.01267  Uiso   1.00
C29    C     0.00749   0.65245   0.22521   0.01267  Uiso   1.00
C30    C     0.00926   0.75620   0.20060   0.01267  Uiso   1.00
C31    C     0.92688   0.82348   0.17396   0.01267  Uiso   1.00
C32    C     0.92758   0.91798   0.14898   0.01267  Uiso   1.00
C33    C     0.01016   0.94780   0.15176   0.01267  Uiso   1.00
C34    C     0.09193   0.88011   0.18078   0.01267  Uiso   1.00
C35    C     0.08971   0.78531   0.20475   0.01267  Uiso   1.00
C36    C     0.01874   0.04672   0.12212   0.01267  Uiso   1.00
C37    C     0.91355   0.13135   0.10703   0.01267  Uiso   1.00
C38    C     0.09475   0.00515   0.07681   0.01267  Uiso   1.00
C39    C     0.06244   0.10284   0.14939   0.01267  Uiso   1.00
C40    C     0.01016   0.13076   0.19343   0.01267  Uiso   1.00
C41    C     0.03420   0.19360   0.21747   0.01267  Uiso   1.00
C42    C     0.11461   0.22653   0.19695   0.01267  Uiso   1.00
C43    C     0.17168   0.19392   0.15438   0.01267  Uiso   1.00
C44    C     0.14509   0.13369   0.13019   0.01267  Uiso   1.00
C45    C     0.13740   0.30180   0.22048   0.01267  Uiso   1.00
C46    C     0.45222   0.12742   0.17231   0.01267  Uiso   1.00
C47    C     0.55638   0.13038   0.10619   0.01267  Uiso   1.00
C48    C     0.58516   0.02456   0.12586   0.01267  Uiso   1.00
C49    C     0.66926   0.93846   0.10429   0.01267  Uiso   1.00
C50    C     0.72080   0.96720   0.06196   0.01267  Uiso   1.00
C51    C     0.69090   0.07390   0.04256   0.01267  Uiso   1.00
C52    C     0.60728   0.16188   0.06361   0.01267  Uiso   1.00
C53    C     0.41833   0.31313   0.13471   0.01267  Uiso   1.00
C54    C     0.46136   0.34956   0.16996   0.01267  Uiso   1.00
C55    C     0.39063   0.43183   0.19617   0.01267  Uiso   1.00
C56    C     0.42889   0.46769   0.22754   0.01267  Uiso   1.00
C57    C     0.53720   0.42218   0.23292   0.01267  Uiso   1.00
C58    C     0.61026   0.33606   0.20668   0.01267  Uiso   1.00
C59    C     0.57449   0.30069   0.17533   0.01267  Uiso   1.00
C60    C     0.70557   0.68731   0.19688   0.01267  Uiso   1.00
C61    C     0.62528   0.62770   0.15728   0.01267  Uiso   1.00
C62    C     0.55328   0.73012   0.16964   0.01267  Uiso   1.00
C63    C     0.44708   0.77768   0.15861   0.01267  Uiso   1.00
C64    C     0.41706   0.72166   0.13410   0.01267  Uiso   1.00
C65    C     0.49185   0.61505   0.12127   0.01267  Uiso   1.00
C66    C     0.59639   0.56859   0.13196   0.01267  Uiso   1.00
C67    C     0.82470   0.51026   0.16826   0.01267  Uiso   1.00
C68    C     0.87283   0.51203   0.11929   0.01267  Uiso   1.00
C69    C     0.83852   0.60192   0.08638   0.01267  Uiso   1.00
C70    C     0.88719   0.59499   0.04063   0.01267  Uiso   1.00
C71    C     0.97333   0.50273   0.02489   0.01267  Uiso   1.00
C72    C     0.00187   0.41567   0.05973   0.01267  Uiso   1.00
C73    C     0.95489   0.41569   0.10565   0.01267  Uiso   1.00
C74    C     0.34755   0.99251   0.27479   0.01267  Uiso   1.00
C75    C     0.24380   0.99074   0.29940   0.01267  Uiso   1.00
C76    C     0.17652   0.07312   0.32604   0.01267  Uiso   1.00
C77    C     0.08202   0.07242   0.35102   0.01267  Uiso   1.00
C78    C     0.05220   0.98984   0.34824   0.01267  Uiso   1.00
C79    C     0.11989   0.90807   0.31922   0.01267  Uiso   1.00
C80    C     0.21469   0.91029   0.29525   0.01267  Uiso   1.00
C81    C     0.95328   0.98126   0.37788   0.01267  Uiso   1.00
C82    C     0.86865   0.08645   0.39297   0.01267  Uiso   1.00
C83    C     0.99485   0.90525   0.42319   0.01267  Uiso   1.00
C84    C     0.89716   0.93756   0.35061   0.01267  Uiso   1.00
C85    C     0.86924   0.98984   0.30657   0.01267  Uiso   1.00
C86    C     0.80640   0.96580   0.28253   0.01267  Uiso   1.00
C87    C     0.77347   0.88539   0.30305   0.01267  Uiso   1.00
C88    C     0.80608   0.82832   0.34562   0.01267  Uiso   1.00
C89    C     0.86631   0.85491   0.36981   0.01267  Uiso   1.00
C90    C     0.69820   0.86260   0.27952   0.01267  Uiso   1.00
C91    C     0.12742   0.45222   0.67231   0.01267  Uiso   1.00
C92    C     0.13038   0.55638   0.60619   0.01267  Uiso   1.00
C93    C     0.02456   0.58516   0.62586   0.01267  Uiso   1.00
C94    C     0.93846   0.66926   0.60429   0.01267  Uiso   1.00
C95    C     0.96720   0.72080   0.56196   0.01267  Uiso   1.00
C96    C     0.07390   0.69090   0.54256   0.01267  Uiso   1.00
C97    C     0.16188   0.60728   0.56361   0.01267  Uiso   1.00
C98    C     0.31313   0.41833   0.63471   0.01267  Uiso   1.00
C99    C     0.34956   0.46136   0.66996   0.01267  Uiso   1.00
C100   C     0.43183   0.39063   0.69617   0.01267  Uiso   1.00
C101   C     0.46769   0.42889   0.72754   0.01267  Uiso   1.00
C102   C     0.42218   0.53720   0.73292   0.01267  Uiso   1.00
C103   C     0.33606   0.61026   0.70668   0.01267  Uiso   1.00
C104   C     0.30069   0.57449   0.67533   0.01267  Uiso   1.00
C105   C     0.68731   0.70557   0.69688   0.01267  Uiso   1.00
C106   C     0.62770   0.62528   0.65728   0.01267  Uiso   1.00
C107   C     0.73012   0.55328   0.66964   0.01267  Uiso   1.00
C108   C     0.77768   0.44708   0.65861   0.01267  Uiso   1.00
C109   C     0.72166   0.41706   0.63410   0.01267  Uiso   1.00
C110   C     0.61505   0.49185   0.62127   0.01267  Uiso   1.00
C111   C     0.56859   0.59639   0.63196   0.01267  Uiso   1.00
C112   C     0.51026   0.82470   0.66826   0.01267  Uiso   1.00
C113   C     0.51203   0.87283   0.61929   0.01267  Uiso   1.00
C114   C     0.60192   0.83852   0.58638   0.01267  Uiso   1.00
C115   C     0.59499   0.88719   0.54063   0.01267  Uiso   1.00
C116   C     0.50273   0.97333   0.52489   0.01267  Uiso   1.00
C117   C     0.41567   0.00187   0.55973   0.01267  Uiso   1.00
C118   C     0.41569   0.95489   0.60565   0.01267  Uiso   1.00
C119   C     0.99251   0.34755   0.77479   0.01267  Uiso   1.00
C120   C     0.99074   0.24380   0.79940   0.01267  Uiso   1.00
C121   C     0.07312   0.17652   0.82604   0.01267  Uiso   1.00
C122   C     0.07242   0.08202   0.85102   0.01267  Uiso   1.00
C123   C     0.98984   0.05220   0.84824   0.01267  Uiso   1.00
C124   C     0.90807   0.11989   0.81922   0.01267  Uiso   1.00
C125   C     0.91029   0.21469   0.79525   0.01267  Uiso   1.00
C126   C     0.98126   0.95328   0.87788   0.01267  Uiso   1.00
C127   C     0.08645   0.86865   0.89297   0.01267  Uiso   1.00
C128   C     0.90525   0.99485   0.92319   0.01267  Uiso   1.00
C129   C     0.93756   0.89716   0.85061   0.01267  Uiso   1.00
C130   C     0.98984   0.86924   0.80657   0.01267  Uiso   1.00
C131   C     0.96580   0.80640   0.78253   0.01267  Uiso   1.00
C132   C     0.88539   0.77347   0.80305   0.01267  Uiso   1.00
C133   C     0.82832   0.80608   0.84562   0.01267  Uiso   1.00
C134   C     0.85491   0.86631   0.86981   0.01267  Uiso   1.00
C135   C     0.86260   0.69820   0.77952   0.01267  Uiso   1.00
C136   C     0.54778   0.87258   0.82769   0.01267  Uiso   1.00
C137   C     0.44362   0.86962   0.89381   0.01267  Uiso   1.00
C138   C     0.41484   0.97544   0.87414   0.01267  Uiso   1.00
C139   C     0.33074   0.06154   0.89571   0.01267  Uiso   1.00
C140   C     0.27920   0.03280   0.93804   0.01267  Uiso   1.00
C141   C     0.30910   0.92610   0.95744   0.01267  Uiso   1.00
C142   C     0.39272   0.83812   0.93639   0.01267  Uiso   1.00
C143   C     0.58167   0.68687   0.86529   0.01267  Uiso   1.00
C144   C     0.53864   0.65044   0.83004   0.01267  Uiso   1.00
C145   C     0.60937   0.56817   0.80383   0.01267  Uiso   1.00
C146   C     0.57111   0.53231   0.77246   0.01267  Uiso   1.00
C147   C     0.46280   0.57782   0.76708   0.01267  Uiso   1.00
C148   C     0.38974   0.66394   0.79332   0.01267  Uiso   1.00
C149   C     0.42551   0.69931   0.82467   0.01267  Uiso   1.00
C150   C     0.29443   0.31269   0.80312   0.01267  Uiso   1.00
C151   C     0.37472   0.37230   0.84272   0.01267  Uiso   1.00
C152   C     0.44672   0.26988   0.83036   0.01267  Uiso   1.00
C153   C     0.55292   0.22232   0.84139   0.01267  Uiso   1.00
C154   C     0.58294   0.27834   0.86590   0.01267  Uiso   1.00
C155   C     0.50815   0.38495   0.87873   0.01267  Uiso   1.00
C156   C     0.40361   0.43141   0.86804   0.01267  Uiso   1.00
C157   C     0.17530   0.48974   0.83174   0.01267  Uiso   1.00
C158   C     0.12717   0.48797   0.88071   0.01267  Uiso   1.00
C159   C     0.16148   0.39808   0.91362   0.01267  Uiso   1.00
C160   C     0.11281   0.40501   0.95937   0.01267  Uiso   1.00
C161   C     0.02667   0.49727   0.97511   0.01267  Uiso   1.00
C162   C     0.99813   0.58433   0.94027   0.01267  Uiso   1.00
C163   C     0.04511   0.58431   0.89435   0.01267  Uiso   1.00
C164   C     0.65245   0.00749   0.72521   0.01267  Uiso   1.00
C165   C     0.75620   0.00926   0.70060   0.01267  Uiso   1.00
C166   C     0.82348   0.92688   0.67396   0.01267  Uiso   1.00
C167   C     0.91798   0.92758   0.64898   0.01267  Uiso   1.00
C168   C     0.94780   0.01016   0.65176   0.01267  Uiso   1.00
C169   C     0.88011   0.09193   0.68078   0.01267  Uiso   1.00
C170   C     0.78531   0.08971   0.70475   0.01267  Uiso   1.00
C171   C     0.04672   0.01874   0.62212   0.01267  Uiso   1.00
C172   C     0.13135   0.91355   0.60703   0.01267  Uiso   1.00
C173   C     0.00515   0.09475   0.57681   0.01267  Uiso   1.00
C174   C     0.10284   0.06244   0.64939   0.01267  Uiso   1.00
C175   C     0.13076   0.01016   0.69343   0.01267  Uiso   1.00
C176   C     0.19360   0.03420   0.71747   0.01267  Uiso   1.00
C177   C     0.22653   0.11461   0.69695   0.01267  Uiso   1.00
C178   C     0.19392   0.17168   0.65438   0.01267  Uiso   1.00
C179   C     0.13369   0.14509   0.63019   0.01267  Uiso   1.00
C180   C     0.30180   0.13740   0.72048   0.01267  Uiso   1.00
N1     N     0.23411   0.39387   0.30591   0.01267  Uiso   1.00
N2     N     0.39498   0.27942   0.32518   0.01267  Uiso   1.00
N3     N     0.97595   0.48157   0.33225   0.01267  Uiso   1.00
N4     N     0.80615   0.52885   0.36389   0.01267  Uiso   1.00
N5     N     0.60613   0.76589   0.19409   0.01267  Uiso   1.00
N6     N     0.72058   0.60502   0.17482   0.01267  Uiso   1.00
N7     N     0.51843   0.02405   0.16775   0.01267  Uiso   1.00
N8     N     0.47115   0.19385   0.13611   0.01267  Uiso   1.00
N9     N     0.76589   0.60613   0.69409   0.01267  Uiso   1.00
N10    N     0.60502   0.72058   0.67482   0.01267  Uiso   1.00
N11    N     0.02405   0.51843   0.66775   0.01267  Uiso   1.00
N12    N     0.19385   0.47115   0.63611   0.01267  Uiso   1.00
N13    N     0.39387   0.23411   0.80591   0.01267  Uiso   1.00
N14    N     0.27942   0.39498   0.82518   0.01267  Uiso   1.00
N15    N     0.48157   0.97595   0.83225   0.01267  Uiso   1.00
N16    N     0.52885   0.80615   0.86389   0.01267  Uiso   1.00
O1     O     0.93276   0.63110   0.22392   0.01267  Uiso   1.00
O2     O     0.09165   0.58971   0.24588   0.01267  Uiso   1.00
O3     O     0.07098   0.34524   0.25409   0.01267  Uiso   1.00
O4     O     0.21652   0.31994   0.20523   0.01267  Uiso   1.00
O5     O     0.36890   0.06724   0.27608   0.01267  Uiso   1.00
O6     O     0.41029   0.90835   0.25412   0.01267  Uiso   1.00
O7     O     0.65476   0.92902   0.24591   0.01267  Uiso   1.00
O8     O     0.68006   0.78348   0.29477   0.01267  Uiso   1.00
O9     O     0.06724   0.36890   0.77608   0.01267  Uiso   1.00
O10    O     0.90835   0.41029   0.75412   0.01267  Uiso   1.00
O11    O     0.92902   0.65476   0.74591   0.01267  Uiso   1.00
O12    O     0.78348   0.68006   0.79477   0.01267  Uiso   1.00
O13    O     0.63110   0.93276   0.72392   0.01267  Uiso   1.00
O14    O     0.58971   0.09165   0.74588   0.01267  Uiso   1.00
O15    O     0.34524   0.07098   0.75409   0.01267  Uiso   1.00
O16    O     0.31994   0.21652   0.70523   0.01267  Uiso   1.00
F1     F     0.83518   0.15454   0.14253   0.01267  Uiso   1.00
F2     F     0.91871   0.22311   0.08925   0.01267  Uiso   1.00
F3     F     0.87767   0.10253   0.07380   0.01267  Uiso   1.00
F4     F     0.09898   0.08368   0.04467   0.01267  Uiso   1.00
F5     F     0.06433   0.94671   0.05682   0.01267  Uiso   1.00
F6     F     0.19577   0.94263   0.08671   0.01267  Uiso   1.00
F7     F     0.84546   0.16482   0.35747   0.01267  Uiso   1.00
F8     F     0.77689   0.08129   0.41075   0.01267  Uiso   1.00
F9     F     0.89747   0.12233   0.42620   0.01267  Uiso   1.00
F10    F     0.91632   0.90102   0.45533   0.01267  Uiso   1.00
F11    F     0.05329   0.93567   0.44318   0.01267  Uiso   1.00
F12    F     0.05737   0.80423   0.41329   0.01267  Uiso   1.00
F13    F     0.16482   0.84546   0.85747   0.01267  Uiso   1.00
F14    F     0.08129   0.77689   0.91075   0.01267  Uiso   1.00
F15    F     0.12233   0.89747   0.92620   0.01267  Uiso   1.00
F16    F     0.90102   0.91632   0.95533   0.01267  Uiso   1.00
F17    F     0.93567   0.05329   0.94318   0.01267  Uiso   1.00
F18    F     0.80423   0.05737   0.91329   0.01267  Uiso   1.00
F19    F     0.15454   0.83518   0.64253   0.01267  Uiso   1.00
F20    F     0.22311   0.91871   0.58925   0.01267  Uiso   1.00
F21    F     0.10253   0.87767   0.57380   0.01267  Uiso   1.00
F22    F     0.08368   0.09898   0.54467   0.01267  Uiso   1.00
F23    F     0.94671   0.06433   0.55682   0.01267  Uiso   1.00
F24    F     0.94263   0.19577   0.58671   0.01267  Uiso   1.00
