data_QIFLOI_clean
_audit_creation_date              2014-07-02
_audit_creation_method            'Materials Studio'
_symmetry_space_group_name_H-M    'P1'
_symmetry_Int_Tables_number       1
_symmetry_cell_setting            triclinic
loop_
_symmetry_equiv_pos_as_xyz
  x,y,z
_cell_length_a                    13.2828
_cell_length_b                    13.2828
_cell_length_c                    16.3021
_cell_angle_alpha                 65.9587
_cell_angle_beta                  65.9587
_cell_angle_gamma                 89.9999
loop_
_atom_site_label
_atom_site_type_symbol
_atom_site_fract_x
_atom_site_fract_y
_atom_site_fract_z
_atom_site_U_iso_or_equiv
_atom_site_adp_type
_atom_site_occupancy
Zn1    Zn    0.52764   0.97590   0.39028   0.01267  Uiso   1.00
Zn2    Zn    0.08208   0.63381   0.39029   0.01267  Uiso   1.00
Zn3    Zn    0.97589   0.08208   0.39029   0.01267  Uiso   1.00
Zn4    Zn    0.63382   0.52764   0.39028   0.01267  Uiso   1.00
Zn5    Zn    0.47237   0.02410   0.60971   0.01267  Uiso   1.00
Zn6    Zn    0.91792   0.36619   0.60971   0.01267  Uiso   1.00
Zn7    Zn    0.02411   0.91792   0.60971   0.01267  Uiso   1.00
Zn8    Zn    0.36618   0.47237   0.60971   0.01267  Uiso   1.00
H1     H     0.43500   0.19890   0.15040   0.01267  Uiso   1.00
H2     H     0.34500   0.66860   0.65000   0.01267  Uiso   1.00
H3     H     0.37670   0.79350   0.59300   0.01267  Uiso   1.00
H4     H     0.69470   0.78840   0.23440   0.01267  Uiso   1.00
H5     H     0.67250   0.89390   0.24420   0.01267  Uiso   1.00
H6     H     0.41460   0.65070   0.15040   0.01267  Uiso   1.00
H7     H     0.00500   0.68140   0.65000   0.01267  Uiso   1.00
H8     H     0.03030   0.61350   0.59300   0.01267  Uiso   1.00
H9     H     0.07090   0.97720   0.23440   0.01267  Uiso   1.00
H10    H     0.08330   0.86190   0.24420   0.01267  Uiso   1.00
H11    H     0.19890   0.41460   0.15040   0.01267  Uiso   1.00
H12    H     0.66860   0.00500   0.65000   0.01267  Uiso   1.00
H13    H     0.79350   0.03030   0.59300   0.01267  Uiso   1.00
H14    H     0.78840   0.07090   0.23440   0.01267  Uiso   1.00
H15    H     0.89390   0.08330   0.24420   0.01267  Uiso   1.00
H16    H     0.65070   0.43500   0.15040   0.01267  Uiso   1.00
H17    H     0.68140   0.34500   0.65000   0.01267  Uiso   1.00
H18    H     0.61350   0.37670   0.59300   0.01267  Uiso   1.00
H19    H     0.97720   0.69470   0.23440   0.01267  Uiso   1.00
H20    H     0.86190   0.67250   0.24420   0.01267  Uiso   1.00
H21    H     0.56500   0.80110   0.84960   0.01267  Uiso   1.00
H22    H     0.65500   0.33140   0.35000   0.01267  Uiso   1.00
H23    H     0.62330   0.20650   0.40700   0.01267  Uiso   1.00
H24    H     0.30530   0.21160   0.76560   0.01267  Uiso   1.00
H25    H     0.32750   0.10610   0.75580   0.01267  Uiso   1.00
H26    H     0.58540   0.34930   0.84960   0.01267  Uiso   1.00
H27    H     0.99500   0.31860   0.35000   0.01267  Uiso   1.00
H28    H     0.96970   0.38650   0.40700   0.01267  Uiso   1.00
H29    H     0.92910   0.02280   0.76560   0.01267  Uiso   1.00
H30    H     0.91670   0.13810   0.75580   0.01267  Uiso   1.00
H31    H     0.80110   0.58540   0.84960   0.01267  Uiso   1.00
H32    H     0.33140   0.99500   0.35000   0.01267  Uiso   1.00
H33    H     0.20650   0.96970   0.40700   0.01267  Uiso   1.00
H34    H     0.21160   0.92910   0.76560   0.01267  Uiso   1.00
H35    H     0.10610   0.91670   0.75580   0.01267  Uiso   1.00
H36    H     0.34930   0.56500   0.84960   0.01267  Uiso   1.00
H37    H     0.31860   0.65500   0.35000   0.01267  Uiso   1.00
H38    H     0.38650   0.62330   0.40700   0.01267  Uiso   1.00
H39    H     0.02280   0.30530   0.76560   0.01267  Uiso   1.00
H40    H     0.13810   0.32750   0.75580   0.01267  Uiso   1.00
H41    H     0.44370   0.33570   0.00000   0.01267  Uiso   1.00
H42    H     0.74440   0.16140  -0.00000   0.01267  Uiso   1.00
H43    H     0.55630   0.66430   0.00000   0.01267  Uiso   1.00
H44    H     0.25560   0.83860  -0.00000   0.01267  Uiso   1.00
H45    H     0.33570   0.55630  -0.00000   0.01267  Uiso   1.00
H46    H     0.16140   0.25560  -0.00000   0.01267  Uiso   1.00
H47    H     0.66430   0.44370   0.00000   0.01267  Uiso   1.00
H48    H     0.83860   0.74440   0.00000   0.01267  Uiso   1.00
C1     C     0.59625   0.09475   0.18610   0.01267  Uiso   1.00
C2     C     0.59222   0.17332   0.09056   0.01267  Uiso   1.00
C3     C     0.49900   0.21880   0.09040   0.01267  Uiso   1.00
C4     C     0.45642   0.71942   0.51376   0.01267  Uiso   1.00
C5     C     0.58363   0.76103   0.36554   0.01267  Uiso   1.00
C6     C     0.21765   0.71915   0.18610   0.01267  Uiso   1.00
C7     C     0.31722   0.73612   0.09056   0.01267  Uiso   1.00
C8     C     0.41060   0.69080   0.09040   0.01267  Uiso   1.00
C9     C     0.02982   0.76682   0.51376   0.01267  Uiso   1.00
C10    C     0.05083   0.87343   0.36554   0.01267  Uiso   1.00
C11    C     0.09475   0.21765   0.18610   0.01267  Uiso   1.00
C12    C     0.17332   0.31722   0.09056   0.01267  Uiso   1.00
C13    C     0.21880   0.41060   0.09040   0.01267  Uiso   1.00
C14    C     0.71942   0.02982   0.51376   0.01267  Uiso   1.00
C15    C     0.76103   0.05083   0.36554   0.01267  Uiso   1.00
C16    C     0.71915   0.59625   0.18610   0.01267  Uiso   1.00
C17    C     0.73612   0.59222   0.09056   0.01267  Uiso   1.00
C18    C     0.69080   0.49900   0.09040   0.01267  Uiso   1.00
C19    C     0.76682   0.45642   0.51376   0.01267  Uiso   1.00
C20    C     0.87343   0.58363   0.36554   0.01267  Uiso   1.00
C21    C     0.40375   0.90525   0.81390   0.01267  Uiso   1.00
C22    C     0.40778   0.82668   0.90944   0.01267  Uiso   1.00
C23    C     0.50100   0.78120   0.90960   0.01267  Uiso   1.00
C24    C     0.54358   0.28058   0.48624   0.01267  Uiso   1.00
C25    C     0.41637   0.23897   0.63446   0.01267  Uiso   1.00
C26    C     0.78235   0.28085   0.81390   0.01267  Uiso   1.00
C27    C     0.68278   0.26388   0.90944   0.01267  Uiso   1.00
C28    C     0.58940   0.30920   0.90960   0.01267  Uiso   1.00
C29    C     0.97018   0.23318   0.48624   0.01267  Uiso   1.00
C30    C     0.94917   0.12657   0.63446   0.01267  Uiso   1.00
C31    C     0.90525   0.78235   0.81390   0.01267  Uiso   1.00
C32    C     0.82668   0.68278   0.90944   0.01267  Uiso   1.00
C33    C     0.78120   0.58940   0.90960   0.01267  Uiso   1.00
C34    C     0.28058   0.97018   0.48624   0.01267  Uiso   1.00
C35    C     0.23897   0.94917   0.63446   0.01267  Uiso   1.00
C36    C     0.28085   0.40375   0.81390   0.01267  Uiso   1.00
C37    C     0.26388   0.40778   0.90944   0.01267  Uiso   1.00
C38    C     0.30920   0.50100   0.90960   0.01267  Uiso   1.00
C39    C     0.23318   0.54358   0.48624   0.01267  Uiso   1.00
C40    C     0.12657   0.41637   0.63446   0.01267  Uiso   1.00
C41    C     0.50070   0.29510   0.00000   0.01267  Uiso   1.00
C42    C     0.68270   0.19440   0.00000   0.01267  Uiso   1.00
C43    C     0.49930   0.70490   1.00000   0.01267  Uiso   1.00
C44    C     0.31730   0.80560   0.00000   0.01267  Uiso   1.00
C45    C     0.29510   0.49930   0.00000   0.01267  Uiso   1.00
C46    C     0.19440   0.31730   0.00000   0.01267  Uiso   1.00
C47    C     0.70490   0.50070   0.00000   0.01267  Uiso   1.00
C48    C     0.80560   0.68270   0.00000   0.01267  Uiso   1.00
N1     N     0.47317   0.62307   0.51046   0.01267  Uiso   1.00
N2     N     0.55679   0.65069   0.41262   0.01267  Uiso   1.00
N3     N     0.52184   0.80994   0.42392   0.01267  Uiso   1.00
N4     N     0.38408   0.72818   0.59524   0.01267  Uiso   1.00
N5     N     0.65930   0.82170   0.27000   0.01267  Uiso   1.00
N6     N     0.01637   0.86647   0.51046   0.01267  Uiso   1.00
N7     N     0.03059   0.93669   0.41262   0.01267  Uiso   1.00
N8     N     0.05424   0.76614   0.42392   0.01267  Uiso   1.00
N9     N     0.02068   0.67658   0.59524   0.01267  Uiso   1.00
N10    N     0.07070   0.90830   0.27000   0.01267  Uiso   1.00
N11    N     0.62307   0.01637   0.51046   0.01267  Uiso   1.00
N12    N     0.65069   0.03059   0.41262   0.01267  Uiso   1.00
N13    N     0.80994   0.05424   0.42392   0.01267  Uiso   1.00
N14    N     0.72818   0.02068   0.59524   0.01267  Uiso   1.00
N15    N     0.82170   0.07070   0.27000   0.01267  Uiso   1.00
N16    N     0.86647   0.47317   0.51046   0.01267  Uiso   1.00
N17    N     0.93669   0.55679   0.41262   0.01267  Uiso   1.00
N18    N     0.76614   0.52184   0.42392   0.01267  Uiso   1.00
N19    N     0.67658   0.38408   0.59524   0.01267  Uiso   1.00
N20    N     0.90830   0.65930   0.27000   0.01267  Uiso   1.00
N21    N     0.52683   0.37693   0.48954   0.01267  Uiso   1.00
N22    N     0.44321   0.34931   0.58738   0.01267  Uiso   1.00
N23    N     0.47816   0.19006   0.57608   0.01267  Uiso   1.00
N24    N     0.61592   0.27182   0.40476   0.01267  Uiso   1.00
N25    N     0.34070   0.17830   0.73000   0.01267  Uiso   1.00
N26    N     0.98363   0.13353   0.48954   0.01267  Uiso   1.00
N27    N     0.96941   0.06331   0.58738   0.01267  Uiso   1.00
N28    N     0.94576   0.23386   0.57608   0.01267  Uiso   1.00
N29    N     0.97932   0.32342   0.40476   0.01267  Uiso   1.00
N30    N     0.92930   0.09170   0.73000   0.01267  Uiso   1.00
N31    N     0.37693   0.98363   0.48954   0.01267  Uiso   1.00
N32    N     0.34931   0.96941   0.58738   0.01267  Uiso   1.00
N33    N     0.19006   0.94576   0.57608   0.01267  Uiso   1.00
N34    N     0.27182   0.97932   0.40476   0.01267  Uiso   1.00
N35    N     0.17830   0.92930   0.73000   0.01267  Uiso   1.00
N36    N     0.13353   0.52683   0.48954   0.01267  Uiso   1.00
N37    N     0.06331   0.44321   0.58738   0.01267  Uiso   1.00
N38    N     0.23386   0.47816   0.57608   0.01267  Uiso   1.00
N39    N     0.32342   0.61592   0.40476   0.01267  Uiso   1.00
N40    N     0.09170   0.34070   0.73000   0.01267  Uiso   1.00
O1     O     0.50916   0.06946   0.26908   0.01267  Uiso   1.00
O2     O     0.68298   0.05938   0.18164   0.01267  Uiso   1.00
O3     O     0.22176   0.66146   0.26908   0.01267  Uiso   1.00
O4     O     0.13538   0.75898   0.18164   0.01267  Uiso   1.00
O5     O     0.06946   0.22176   0.26908   0.01267  Uiso   1.00
O6     O     0.05938   0.13538   0.18164   0.01267  Uiso   1.00
O7     O     0.66146   0.50916   0.26908   0.01267  Uiso   1.00
O8     O     0.75898   0.68298   0.18164   0.01267  Uiso   1.00
O9     O     0.49084   0.93054   0.73092   0.01267  Uiso   1.00
O10    O     0.31702   0.94062   0.81836   0.01267  Uiso   1.00
O11    O     0.77824   0.33854   0.73092   0.01267  Uiso   1.00
O12    O     0.86462   0.24102   0.81836   0.01267  Uiso   1.00
O13    O     0.93054   0.77824   0.73092   0.01267  Uiso   1.00
O14    O     0.94062   0.86462   0.81836   0.01267  Uiso   1.00
O15    O     0.33854   0.49084   0.73092   0.01267  Uiso   1.00
O16    O     0.24102   0.31702   0.81836   0.01267  Uiso   1.00
