data_image0
_cell_length_a       25.9164
_cell_length_b       24.8826
_cell_length_c       17.9542
_cell_angle_alpha    90
_cell_angle_beta     93.206
_cell_angle_gamma    90

_symmetry_space_group_name_H-M    "P 1"
_symmetry_int_tables_number       1

loop_
  _symmetry_equiv_pos_as_xyz
  'x, y, z'

loop_
  _atom_site_label
  _atom_site_occupancy
  _atom_site_fract_x
  _atom_site_fract_y
  _atom_site_fract_z
  _atom_site_thermal_displace_type
  _atom_site_B_iso_or_equiv
  _atom_site_type_symbol
  Zn1      1.0000 0.21027  0.13804  0.76309  Biso   1.000  Zn
  Zn2      1.0000 0.09535  0.33216  0.84810  Biso   1.000  Zn
  Zn3      1.0000 0.20773  0.94483  0.57225  Biso   1.000  Zn
  Zn4      1.0000 0.40615  0.25032  0.84401  Biso   1.000  Zn
  N1       1.0000 0.10810  0.25960  0.81690  Biso   1.000  N
  N2       1.0000 0.15420  0.18630  0.78270  Biso   1.000  N
  C1       1.0000 0.14820  0.23550  0.79970  Biso   1.000  C
  C2       1.0000 0.07400  0.21320  0.82650  Biso   1.000  C
  C3       1.0000 0.02480  0.20870  0.85320  Biso   1.000  C
  C4       1.0000 0.00400  0.15820  0.86550  Biso   1.000  C
  C5       1.0000 0.03220  0.11230  0.85120  Biso   1.000  C
  C6       1.0000 0.08140  0.11680  0.82450  Biso   1.000  C
  C7       1.0000 0.10220  0.16720  0.81220  Biso   1.000  C
  C8       1.0000 0.01000  0.05300  0.86900  Biso   1.000  C
  N3       1.0000 0.27110  0.19000  0.75400  Biso   1.000  N
  N4       1.0000 0.31190  0.19140  0.80190  Biso   1.000  N
  C9       1.0000 0.34230  0.23110  0.78200  Biso   1.000  C
  C10      1.0000 0.32020  0.25430  0.72190  Biso   1.000  C
  C11      1.0000 0.27630  0.22890  0.70460  Biso   1.000  C
  N5       1.0000 0.13570  0.89960  0.57020  Biso   1.000  N
  N6       1.0000 0.14750  0.85450  0.61190  Biso   1.000  N
  C12      1.0000 0.10510  0.82130  0.60790  Biso   1.000  C
  C13      1.0000 0.06700  0.84580  0.56370  Biso   1.000  C
  C14      1.0000 0.08590  0.89430  0.54040  Biso   1.000  C
  N7       1.0000 0.23210  0.41580  0.86750  Biso   1.000  N
  N8       1.0000 0.15660  0.37660  0.84290  Biso   1.000  N
  C15      1.0000 0.19310  0.39350  0.88270  Biso   1.000  C
  C16      1.0000 0.23260  0.40610  0.78520  Biso   1.000  C
  C17      1.0000 0.26860  0.41020  0.73100  Biso   1.000  C
  C18      1.0000 0.25860  0.38700  0.66130  Biso   1.000  C
  C19      1.0000 0.21250  0.35950  0.64580  Biso   1.000  C
  C20      1.0000 0.17650  0.35530  0.70000  Biso   1.000  C
  C21      1.0000 0.18650  0.37860  0.76960  Biso   1.000  C
  N9       1.0000 0.19690  0.09200  0.67700  Biso   1.000  N
  N10      1.0000 0.19560  0.01630  0.60290  Biso   1.000  N
  C22      1.0000 0.16980  0.10640  0.61820  Biso   1.000  C
  C23      1.0000 0.16600  0.05480  0.57570  Biso   1.000  C
  C24      1.0000 0.20970  0.04050  0.66480  Biso   1.000  C
  N11      1.0000 0.08480  0.30960  0.07500  Biso   1.000  N
  N12      1.0000 0.08940  0.29260  0.00490  Biso   1.000  N
  C25      1.0000 0.08680  0.33550  0.96000  Biso   1.000  C
  C26      1.0000 0.08060  0.37910  0.00230  Biso   1.000  C
  C27      1.0000 0.07930  0.36310  0.07330  Biso   1.000  C
  N13      1.0000 0.47800  0.23800  0.78600  Biso   1.000  N
  N14      1.0000 0.46600  0.26800  0.76400  Biso   1.000  N
  N15      1.0000 0.22080  0.06400  0.96090  Biso   1.000  N
  N16      1.0000 0.22700  0.09140  0.85050  Biso   1.000  N
  C28      1.0000 0.20590  0.09380  0.91270  Biso   1.000  C
  C29      1.0000 0.27030  0.04000  0.93480  Biso   1.000  C
  C30      1.0000 0.31150  0.00980  0.96510  Biso   1.000  C
  C31      1.0000 0.35280  0.99730  0.92200  Biso   1.000  C
  C32      1.0000 0.35290  0.01510  0.84900  Biso   1.000  C
  C33      1.0000 0.31180  0.04520  0.81830  Biso   1.000  C
  C34      1.0000 0.27050  0.05770  0.86140  Biso   1.000  C
  C35      1.0000 0.39900  0.96700  0.96600  Biso   1.000  C
  N17      1.0000 0.03590  0.36060  0.78660  Biso   1.000  N
  C36      1.0000 0.01990  0.41370  0.78220  Biso   1.000  C
  Zn5      1.0000 0.71027  0.63804  0.76309  Biso   1.000  Zn
  Zn6      1.0000 0.59535  0.83216  0.84810  Biso   1.000  Zn
  Zn7      1.0000 0.70773  0.44483  0.57225  Biso   1.000  Zn
  Zn8      1.0000 0.90615  0.75032  0.84401  Biso   1.000  Zn
  N18      1.0000 0.60810  0.75960  0.81690  Biso   1.000  N
  N19      1.0000 0.65420  0.68630  0.78270  Biso   1.000  N
  C37      1.0000 0.64820  0.73550  0.79970  Biso   1.000  C
  C38      1.0000 0.57400  0.71320  0.82650  Biso   1.000  C
  C39      1.0000 0.52480  0.70870  0.85320  Biso   1.000  C
  C40      1.0000 0.50400  0.65820  0.86550  Biso   1.000  C
  C41      1.0000 0.53220  0.61230  0.85120  Biso   1.000  C
  C42      1.0000 0.58140  0.61680  0.82450  Biso   1.000  C
  C43      1.0000 0.60220  0.66720  0.81220  Biso   1.000  C
  C44      1.0000 0.51000  0.55300  0.86900  Biso   1.000  C
  N20      1.0000 0.77110  0.69000  0.75400  Biso   1.000  N
  N21      1.0000 0.81190  0.69140  0.80190  Biso   1.000  N
  C45      1.0000 0.84230  0.73110  0.78200  Biso   1.000  C
  C46      1.0000 0.82020  0.75430  0.72190  Biso   1.000  C
  C47      1.0000 0.77630  0.72890  0.70460  Biso   1.000  C
  N22      1.0000 0.63570  0.39960  0.57020  Biso   1.000  N
  N23      1.0000 0.64750  0.35450  0.61190  Biso   1.000  N
  C48      1.0000 0.60510  0.32130  0.60790  Biso   1.000  C
  C49      1.0000 0.56700  0.34580  0.56370  Biso   1.000  C
  C50      1.0000 0.58590  0.39430  0.54040  Biso   1.000  C
  N24      1.0000 0.73210  0.91580  0.86750  Biso   1.000  N
  N25      1.0000 0.65660  0.87660  0.84290  Biso   1.000  N
  C51      1.0000 0.69310  0.89350  0.88270  Biso   1.000  C
  C52      1.0000 0.73260  0.90610  0.78520  Biso   1.000  C
  C53      1.0000 0.76860  0.91020  0.73100  Biso   1.000  C
  C54      1.0000 0.75860  0.88700  0.66130  Biso   1.000  C
  C55      1.0000 0.71250  0.85950  0.64580  Biso   1.000  C
  C56      1.0000 0.67650  0.85530  0.70000  Biso   1.000  C
  C57      1.0000 0.68650  0.87860  0.76960  Biso   1.000  C
  N26      1.0000 0.69690  0.59200  0.67700  Biso   1.000  N
  N27      1.0000 0.69560  0.51630  0.60290  Biso   1.000  N
  C58      1.0000 0.66980  0.60640  0.61820  Biso   1.000  C
  C59      1.0000 0.66600  0.55480  0.57570  Biso   1.000  C
  C60      1.0000 0.70970  0.54050  0.66480  Biso   1.000  C
  N28      1.0000 0.58480  0.80960  0.07500  Biso   1.000  N
  N29      1.0000 0.58940  0.79260  0.00490  Biso   1.000  N
  C61      1.0000 0.58680  0.83550  0.96000  Biso   1.000  C
  C62      1.0000 0.58060  0.87910  0.00230  Biso   1.000  C
  C63      1.0000 0.57930  0.86310  0.07330  Biso   1.000  C
  N30      1.0000 0.97800  0.73800  0.78600  Biso   1.000  N
  N31      1.0000 0.96600  0.76800  0.76400  Biso   1.000  N
  N32      1.0000 0.72080  0.56400  0.96090  Biso   1.000  N
  N33      1.0000 0.72700  0.59140  0.85050  Biso   1.000  N
  C64      1.0000 0.70590  0.59380  0.91270  Biso   1.000  C
  C65      1.0000 0.77030  0.54000  0.93480  Biso   1.000  C
  C66      1.0000 0.81150  0.50980  0.96510  Biso   1.000  C
  C67      1.0000 0.85280  0.49730  0.92200  Biso   1.000  C
  C68      1.0000 0.85290  0.51510  0.84900  Biso   1.000  C
  C69      1.0000 0.81180  0.54520  0.81830  Biso   1.000  C
  C70      1.0000 0.77050  0.55770  0.86140  Biso   1.000  C
  C71      1.0000 0.89900  0.46700  0.96600  Biso   1.000  C
  N34      1.0000 0.53590  0.86060  0.78660  Biso   1.000  N
  C72      1.0000 0.51990  0.91370  0.78220  Biso   1.000  C
  Zn9      1.0000 0.78973  0.13804  0.73691  Biso   1.000  Zn
  Zn10     1.0000 0.90465  0.33216  0.65190  Biso   1.000  Zn
  Zn11     1.0000 0.79227  0.94483  0.92775  Biso   1.000  Zn
  Zn12     1.0000 0.59385  0.25032  0.65599  Biso   1.000  Zn
  N35      1.0000 0.89190  0.25960  0.68310  Biso   1.000  N
  N36      1.0000 0.84580  0.18630  0.71730  Biso   1.000  N
  C73      1.0000 0.85180  0.23550  0.70030  Biso   1.000  C
  C74      1.0000 0.92600  0.21320  0.67350  Biso   1.000  C
  C75      1.0000 0.97520  0.20870  0.64680  Biso   1.000  C
  C76      1.0000 0.99600  0.15820  0.63450  Biso   1.000  C
  C77      1.0000 0.96780  0.11230  0.64880  Biso   1.000  C
  C78      1.0000 0.91860  0.11680  0.67550  Biso   1.000  C
  C79      1.0000 0.89780  0.16720  0.68780  Biso   1.000  C
  C80      1.0000 0.99000  0.05300  0.63100  Biso   1.000  C
  N37      1.0000 0.72890  0.19000  0.74600  Biso   1.000  N
  N38      1.0000 0.68810  0.19140  0.69810  Biso   1.000  N
  C81      1.0000 0.65770  0.23110  0.71800  Biso   1.000  C
  C82      1.0000 0.67980  0.25430  0.77810  Biso   1.000  C
  C83      1.0000 0.72370  0.22890  0.79540  Biso   1.000  C
  N39      1.0000 0.86430  0.89960  0.92980  Biso   1.000  N
  N40      1.0000 0.85250  0.85450  0.88810  Biso   1.000  N
  C84      1.0000 0.89490  0.82130  0.89210  Biso   1.000  C
  C85      1.0000 0.93300  0.84580  0.93630  Biso   1.000  C
  C86      1.0000 0.91410  0.89430  0.95960  Biso   1.000  C
  N41      1.0000 0.76790  0.41580  0.63250  Biso   1.000  N
  N42      1.0000 0.84340  0.37660  0.65710  Biso   1.000  N
  C87      1.0000 0.80690  0.39350  0.61730  Biso   1.000  C
  C88      1.0000 0.76740  0.40610  0.71480  Biso   1.000  C
  C89      1.0000 0.73140  0.41020  0.76900  Biso   1.000  C
  C90      1.0000 0.74140  0.38700  0.83870  Biso   1.000  C
  C91      1.0000 0.78750  0.35950  0.85420  Biso   1.000  C
  C92      1.0000 0.82350  0.35530  0.80000  Biso   1.000  C
  C93      1.0000 0.81350  0.37860  0.73040  Biso   1.000  C
  N43      1.0000 0.80310  0.09200  0.82300  Biso   1.000  N
  N44      1.0000 0.80440  0.01630  0.89710  Biso   1.000  N
  C94      1.0000 0.83020  0.10640  0.88180  Biso   1.000  C
  C95      1.0000 0.83400  0.05480  0.92430  Biso   1.000  C
  C96      1.0000 0.79030  0.04050  0.83520  Biso   1.000  C
  N45      1.0000 0.91520  0.30960  0.42500  Biso   1.000  N
  N46      1.0000 0.91060  0.29260  0.49510  Biso   1.000  N
  C97      1.0000 0.91320  0.33550  0.54000  Biso   1.000  C
  C98      1.0000 0.91940  0.37910  0.49770  Biso   1.000  C
  C99      1.0000 0.92070  0.36310  0.42670  Biso   1.000  C
  N47      1.0000 0.52200  0.23800  0.71400  Biso   1.000  N
  N48      1.0000 0.53400  0.26800  0.73600  Biso   1.000  N
  N49      1.0000 0.77920  0.06400  0.53910  Biso   1.000  N
  N50      1.0000 0.77300  0.09140  0.64950  Biso   1.000  N
  C100     1.0000 0.79410  0.09380  0.58730  Biso   1.000  C
  C101     1.0000 0.72970  0.04000  0.56520  Biso   1.000  C
  C102     1.0000 0.68850  0.00980  0.53490  Biso   1.000  C
  C103     1.0000 0.64720  0.99730  0.57800  Biso   1.000  C
  C104     1.0000 0.64710  0.01510  0.65100  Biso   1.000  C
  C105     1.0000 0.68820  0.04520  0.68170  Biso   1.000  C
  C106     1.0000 0.72950  0.05770  0.63860  Biso   1.000  C
  C107     1.0000 0.60100  0.96700  0.53400  Biso   1.000  C
  N51      1.0000 0.96410  0.36060  0.71340  Biso   1.000  N
  C108     1.0000 0.98010  0.41370  0.71780  Biso   1.000  C
  Zn13     1.0000 0.28973  0.63804  0.73691  Biso   1.000  Zn
  Zn14     1.0000 0.40465  0.83216  0.65190  Biso   1.000  Zn
  Zn15     1.0000 0.29227  0.44483  0.92775  Biso   1.000  Zn
  Zn16     1.0000 0.09385  0.75032  0.65599  Biso   1.000  Zn
  N52      1.0000 0.39190  0.75960  0.68310  Biso   1.000  N
  N53      1.0000 0.34580  0.68630  0.71730  Biso   1.000  N
  C109     1.0000 0.35180  0.73550  0.70030  Biso   1.000  C
  C110     1.0000 0.42600  0.71320  0.67350  Biso   1.000  C
  C111     1.0000 0.47520  0.70870  0.64680  Biso   1.000  C
  C112     1.0000 0.49600  0.65820  0.63450  Biso   1.000  C
  C113     1.0000 0.46780  0.61230  0.64880  Biso   1.000  C
  C114     1.0000 0.41860  0.61680  0.67550  Biso   1.000  C
  C115     1.0000 0.39780  0.66720  0.68780  Biso   1.000  C
  C116     1.0000 0.49000  0.55300  0.63100  Biso   1.000  C
  N54      1.0000 0.22890  0.69000  0.74600  Biso   1.000  N
  N55      1.0000 0.18810  0.69140  0.69810  Biso   1.000  N
  C117     1.0000 0.15770  0.73110  0.71800  Biso   1.000  C
  C118     1.0000 0.17980  0.75430  0.77810  Biso   1.000  C
  C119     1.0000 0.22370  0.72890  0.79540  Biso   1.000  C
  N56      1.0000 0.36430  0.39960  0.92980  Biso   1.000  N
  N57      1.0000 0.35250  0.35450  0.88810  Biso   1.000  N
  C120     1.0000 0.39490  0.32130  0.89210  Biso   1.000  C
  C121     1.0000 0.43300  0.34580  0.93630  Biso   1.000  C
  C122     1.0000 0.41410  0.39430  0.95960  Biso   1.000  C
  N58      1.0000 0.26790  0.91580  0.63250  Biso   1.000  N
  N59      1.0000 0.34340  0.87660  0.65710  Biso   1.000  N
  C123     1.0000 0.30690  0.89350  0.61730  Biso   1.000  C
  C124     1.0000 0.26740  0.90610  0.71480  Biso   1.000  C
  C125     1.0000 0.23140  0.91020  0.76900  Biso   1.000  C
  C126     1.0000 0.24140  0.88700  0.83870  Biso   1.000  C
  C127     1.0000 0.28750  0.85950  0.85420  Biso   1.000  C
  C128     1.0000 0.32350  0.85530  0.80000  Biso   1.000  C
  C129     1.0000 0.31350  0.87860  0.73040  Biso   1.000  C
  N60      1.0000 0.30310  0.59200  0.82300  Biso   1.000  N
  N61      1.0000 0.30440  0.51630  0.89710  Biso   1.000  N
  C130     1.0000 0.33020  0.60640  0.88180  Biso   1.000  C
  C131     1.0000 0.33400  0.55480  0.92430  Biso   1.000  C
  C132     1.0000 0.29030  0.54050  0.83520  Biso   1.000  C
  N62      1.0000 0.41520  0.80960  0.42500  Biso   1.000  N
  N63      1.0000 0.41060  0.79260  0.49510  Biso   1.000  N
  C133     1.0000 0.41320  0.83550  0.54000  Biso   1.000  C
  C134     1.0000 0.41940  0.87910  0.49770  Biso   1.000  C
  C135     1.0000 0.42070  0.86310  0.42670  Biso   1.000  C
  N64      1.0000 0.02200  0.73800  0.71400  Biso   1.000  N
  N65      1.0000 0.03400  0.76800  0.73600  Biso   1.000  N
  N66      1.0000 0.27920  0.56400  0.53910  Biso   1.000  N
  N67      1.0000 0.27300  0.59140  0.64950  Biso   1.000  N
  C136     1.0000 0.29410  0.59380  0.58730  Biso   1.000  C
  C137     1.0000 0.22970  0.54000  0.56520  Biso   1.000  C
  C138     1.0000 0.18850  0.50980  0.53490  Biso   1.000  C
  C139     1.0000 0.14720  0.49730  0.57800  Biso   1.000  C
  C140     1.0000 0.14710  0.51510  0.65100  Biso   1.000  C
  C141     1.0000 0.18820  0.54520  0.68170  Biso   1.000  C
  C142     1.0000 0.22950  0.55770  0.63860  Biso   1.000  C
  C143     1.0000 0.10100  0.46700  0.53400  Biso   1.000  C
  N68      1.0000 0.46410  0.86060  0.71340  Biso   1.000  N
  C144     1.0000 0.48010  0.91370  0.71780  Biso   1.000  C
  Zn17     1.0000 0.78973  0.86196  0.23691  Biso   1.000  Zn
  Zn18     1.0000 0.90465  0.66784  0.15190  Biso   1.000  Zn
  Zn19     1.0000 0.79227  0.05517  0.42775  Biso   1.000  Zn
  Zn20     1.0000 0.59385  0.74968  0.15599  Biso   1.000  Zn
  N69      1.0000 0.89190  0.74040  0.18310  Biso   1.000  N
  N70      1.0000 0.84580  0.81370  0.21730  Biso   1.000  N
  C145     1.0000 0.85180  0.76450  0.20030  Biso   1.000  C
  C146     1.0000 0.92600  0.78680  0.17350  Biso   1.000  C
  C147     1.0000 0.97520  0.79130  0.14680  Biso   1.000  C
  C148     1.0000 0.99600  0.84180  0.13450  Biso   1.000  C
  C149     1.0000 0.96780  0.88770  0.14880  Biso   1.000  C
  C150     1.0000 0.91860  0.88320  0.17550  Biso   1.000  C
  C151     1.0000 0.89780  0.83280  0.18780  Biso   1.000  C
  C152     1.0000 0.99000  0.94700  0.13100  Biso   1.000  C
  N71      1.0000 0.72890  0.81000  0.24600  Biso   1.000  N
  N72      1.0000 0.68810  0.80860  0.19810  Biso   1.000  N
  C153     1.0000 0.65770  0.76890  0.21800  Biso   1.000  C
  C154     1.0000 0.67980  0.74570  0.27810  Biso   1.000  C
  C155     1.0000 0.72370  0.77110  0.29540  Biso   1.000  C
  N73      1.0000 0.86430  0.10040  0.42980  Biso   1.000  N
  N74      1.0000 0.85250  0.14550  0.38810  Biso   1.000  N
  C156     1.0000 0.89490  0.17870  0.39210  Biso   1.000  C
  C157     1.0000 0.93300  0.15420  0.43630  Biso   1.000  C
  C158     1.0000 0.91410  0.10570  0.45960  Biso   1.000  C
  N75      1.0000 0.76790  0.58420  0.13250  Biso   1.000  N
  N76      1.0000 0.84340  0.62340  0.15710  Biso   1.000  N
  C159     1.0000 0.80690  0.60650  0.11730  Biso   1.000  C
  C160     1.0000 0.76740  0.59390  0.21480  Biso   1.000  C
  C161     1.0000 0.73140  0.58980  0.26900  Biso   1.000  C
  C162     1.0000 0.74140  0.61300  0.33870  Biso   1.000  C
  C163     1.0000 0.78750  0.64050  0.35420  Biso   1.000  C
  C164     1.0000 0.82350  0.64470  0.30000  Biso   1.000  C
  C165     1.0000 0.81350  0.62140  0.23040  Biso   1.000  C
  N77      1.0000 0.80310  0.90800  0.32300  Biso   1.000  N
  N78      1.0000 0.80440  0.98370  0.39710  Biso   1.000  N
  C166     1.0000 0.83020  0.89360  0.38180  Biso   1.000  C
  C167     1.0000 0.83400  0.94520  0.42430  Biso   1.000  C
  C168     1.0000 0.79030  0.95950  0.33520  Biso   1.000  C
  N79      1.0000 0.91520  0.69040  0.92500  Biso   1.000  N
  N80      1.0000 0.91060  0.70740  0.99510  Biso   1.000  N
  C169     1.0000 0.91320  0.66450  0.04000  Biso   1.000  C
  C170     1.0000 0.91940  0.62090  0.99770  Biso   1.000  C
  C171     1.0000 0.92070  0.63690  0.92670  Biso   1.000  C
  N81      1.0000 0.52200  0.76200  0.21400  Biso   1.000  N
  N82      1.0000 0.53400  0.73200  0.23600  Biso   1.000  N
  N83      1.0000 0.77920  0.93600  0.03910  Biso   1.000  N
  N84      1.0000 0.77300  0.90860  0.14950  Biso   1.000  N
  C172     1.0000 0.79410  0.90620  0.08730  Biso   1.000  C
  C173     1.0000 0.72970  0.96000  0.06520  Biso   1.000  C
  C174     1.0000 0.68850  0.99020  0.03490  Biso   1.000  C
  C175     1.0000 0.64720  0.00270  0.07800  Biso   1.000  C
  C176     1.0000 0.64710  0.98490  0.15100  Biso   1.000  C
  C177     1.0000 0.68820  0.95480  0.18170  Biso   1.000  C
  C178     1.0000 0.72950  0.94230  0.13860  Biso   1.000  C
  C179     1.0000 0.60100  0.03300  0.03400  Biso   1.000  C
  N85      1.0000 0.96410  0.63940  0.21340  Biso   1.000  N
  C180     1.0000 0.98010  0.58630  0.21780  Biso   1.000  C
  Zn21     1.0000 0.28973  0.36196  0.23691  Biso   1.000  Zn
  Zn22     1.0000 0.40465  0.16784  0.15190  Biso   1.000  Zn
  Zn23     1.0000 0.29227  0.55517  0.42775  Biso   1.000  Zn
  Zn24     1.0000 0.09385  0.24968  0.15599  Biso   1.000  Zn
  N86      1.0000 0.39190  0.24040  0.18310  Biso   1.000  N
  N87      1.0000 0.34580  0.31370  0.21730  Biso   1.000  N
  C181     1.0000 0.35180  0.26450  0.20030  Biso   1.000  C
  C182     1.0000 0.42600  0.28680  0.17350  Biso   1.000  C
  C183     1.0000 0.47520  0.29130  0.14680  Biso   1.000  C
  C184     1.0000 0.49600  0.34180  0.13450  Biso   1.000  C
  C185     1.0000 0.46780  0.38770  0.14880  Biso   1.000  C
  C186     1.0000 0.41860  0.38320  0.17550  Biso   1.000  C
  C187     1.0000 0.39780  0.33280  0.18780  Biso   1.000  C
  C188     1.0000 0.49000  0.44700  0.13100  Biso   1.000  C
  N88      1.0000 0.22890  0.31000  0.24600  Biso   1.000  N
  N89      1.0000 0.18810  0.30860  0.19810  Biso   1.000  N
  C189     1.0000 0.15770  0.26890  0.21800  Biso   1.000  C
  C190     1.0000 0.17980  0.24570  0.27810  Biso   1.000  C
  C191     1.0000 0.22370  0.27110  0.29540  Biso   1.000  C
  N90      1.0000 0.36430  0.60040  0.42980  Biso   1.000  N
  N91      1.0000 0.35250  0.64550  0.38810  Biso   1.000  N
  C192     1.0000 0.39490  0.67870  0.39210  Biso   1.000  C
  C193     1.0000 0.43300  0.65420  0.43630  Biso   1.000  C
  C194     1.0000 0.41410  0.60570  0.45960  Biso   1.000  C
  N92      1.0000 0.26790  0.08420  0.13250  Biso   1.000  N
  N93      1.0000 0.34340  0.12340  0.15710  Biso   1.000  N
  C195     1.0000 0.30690  0.10650  0.11730  Biso   1.000  C
  C196     1.0000 0.26740  0.09390  0.21480  Biso   1.000  C
  C197     1.0000 0.23140  0.08980  0.26900  Biso   1.000  C
  C198     1.0000 0.24140  0.11300  0.33870  Biso   1.000  C
  C199     1.0000 0.28750  0.14050  0.35420  Biso   1.000  C
  C200     1.0000 0.32350  0.14470  0.30000  Biso   1.000  C
  C201     1.0000 0.31350  0.12140  0.23040  Biso   1.000  C
  N94      1.0000 0.30310  0.40800  0.32300  Biso   1.000  N
  N95      1.0000 0.30440  0.48370  0.39710  Biso   1.000  N
  C202     1.0000 0.33020  0.39360  0.38180  Biso   1.000  C
  C203     1.0000 0.33400  0.44520  0.42430  Biso   1.000  C
  C204     1.0000 0.29030  0.45950  0.33520  Biso   1.000  C
  N96      1.0000 0.41520  0.19040  0.92500  Biso   1.000  N
  N97      1.0000 0.41060  0.20740  0.99510  Biso   1.000  N
  C205     1.0000 0.41320  0.16450  0.04000  Biso   1.000  C
  C206     1.0000 0.41940  0.12090  0.99770  Biso   1.000  C
  C207     1.0000 0.42070  0.13690  0.92670  Biso   1.000  C
  N98      1.0000 0.02200  0.26200  0.21400  Biso   1.000  N
  N99      1.0000 0.03400  0.23200  0.23600  Biso   1.000  N
  N100     1.0000 0.27920  0.43600  0.03910  Biso   1.000  N
  N101     1.0000 0.27300  0.40860  0.14950  Biso   1.000  N
  C208     1.0000 0.29410  0.40620  0.08730  Biso   1.000  C
  C209     1.0000 0.22970  0.46000  0.06520  Biso   1.000  C
  C210     1.0000 0.18850  0.49020  0.03490  Biso   1.000  C
  C211     1.0000 0.14720  0.50270  0.07800  Biso   1.000  C
  C212     1.0000 0.14710  0.48490  0.15100  Biso   1.000  C
  C213     1.0000 0.18820  0.45480  0.18170  Biso   1.000  C
  C214     1.0000 0.22950  0.44230  0.13860  Biso   1.000  C
  C215     1.0000 0.10100  0.53300  0.03400  Biso   1.000  C
  N102     1.0000 0.46410  0.13940  0.21340  Biso   1.000  N
  C216     1.0000 0.48010  0.08630  0.21780  Biso   1.000  C
  Zn25     1.0000 0.21027  0.86196  0.26309  Biso   1.000  Zn
  Zn26     1.0000 0.09535  0.66784  0.34810  Biso   1.000  Zn
  Zn27     1.0000 0.20773  0.05517  0.07225  Biso   1.000  Zn
  Zn28     1.0000 0.40615  0.74968  0.34401  Biso   1.000  Zn
  N103     1.0000 0.10810  0.74040  0.31690  Biso   1.000  N
  N104     1.0000 0.15420  0.81370  0.28270  Biso   1.000  N
  C217     1.0000 0.14820  0.76450  0.29970  Biso   1.000  C
  C218     1.0000 0.07400  0.78680  0.32650  Biso   1.000  C
  C219     1.0000 0.02480  0.79130  0.35320  Biso   1.000  C
  C220     1.0000 0.00400  0.84180  0.36550  Biso   1.000  C
  C221     1.0000 0.03220  0.88770  0.35120  Biso   1.000  C
  C222     1.0000 0.08140  0.88320  0.32450  Biso   1.000  C
  C223     1.0000 0.10220  0.83280  0.31220  Biso   1.000  C
  C224     1.0000 0.01000  0.94700  0.36900  Biso   1.000  C
  N105     1.0000 0.27110  0.81000  0.25400  Biso   1.000  N
  N106     1.0000 0.31190  0.80860  0.30190  Biso   1.000  N
  C225     1.0000 0.34230  0.76890  0.28200  Biso   1.000  C
  C226     1.0000 0.32020  0.74570  0.22190  Biso   1.000  C
  C227     1.0000 0.27630  0.77110  0.20460  Biso   1.000  C
  N107     1.0000 0.13570  0.10040  0.07020  Biso   1.000  N
  N108     1.0000 0.14750  0.14550  0.11190  Biso   1.000  N
  C228     1.0000 0.10510  0.17870  0.10790  Biso   1.000  C
  C229     1.0000 0.06700  0.15420  0.06370  Biso   1.000  C
  C230     1.0000 0.08590  0.10570  0.04040  Biso   1.000  C
  N109     1.0000 0.23210  0.58420  0.36750  Biso   1.000  N
  N110     1.0000 0.15660  0.62340  0.34290  Biso   1.000  N
  C231     1.0000 0.19310  0.60650  0.38270  Biso   1.000  C
  C232     1.0000 0.23260  0.59390  0.28520  Biso   1.000  C
  C233     1.0000 0.26860  0.58980  0.23100  Biso   1.000  C
  C234     1.0000 0.25860  0.61300  0.16130  Biso   1.000  C
  C235     1.0000 0.21250  0.64050  0.14580  Biso   1.000  C
  C236     1.0000 0.17650  0.64470  0.20000  Biso   1.000  C
  C237     1.0000 0.18650  0.62140  0.26960  Biso   1.000  C
  N111     1.0000 0.19690  0.90800  0.17700  Biso   1.000  N
  N112     1.0000 0.19560  0.98370  0.10290  Biso   1.000  N
  C238     1.0000 0.16980  0.89360  0.11820  Biso   1.000  C
  C239     1.0000 0.16600  0.94520  0.07570  Biso   1.000  C
  C240     1.0000 0.20970  0.95950  0.16480  Biso   1.000  C
  N113     1.0000 0.08480  0.69040  0.57500  Biso   1.000  N
  N114     1.0000 0.08940  0.70740  0.50490  Biso   1.000  N
  C241     1.0000 0.08680  0.66450  0.46000  Biso   1.000  C
  C242     1.0000 0.08060  0.62090  0.50230  Biso   1.000  C
  C243     1.0000 0.07930  0.63690  0.57330  Biso   1.000  C
  N115     1.0000 0.47800  0.76200  0.28600  Biso   1.000  N
  N116     1.0000 0.46600  0.73200  0.26400  Biso   1.000  N
  N117     1.0000 0.22080  0.93600  0.46090  Biso   1.000  N
  N118     1.0000 0.22700  0.90860  0.35050  Biso   1.000  N
  C244     1.0000 0.20590  0.90620  0.41270  Biso   1.000  C
  C245     1.0000 0.27030  0.96000  0.43480  Biso   1.000  C
  C246     1.0000 0.31150  0.99020  0.46510  Biso   1.000  C
  C247     1.0000 0.35280  0.00270  0.42200  Biso   1.000  C
  C248     1.0000 0.35290  0.98490  0.34900  Biso   1.000  C
  C249     1.0000 0.31180  0.95480  0.31830  Biso   1.000  C
  C250     1.0000 0.27050  0.94230  0.36140  Biso   1.000  C
  C251     1.0000 0.39900  0.03300  0.46600  Biso   1.000  C
  N119     1.0000 0.03590  0.63940  0.28660  Biso   1.000  N
  C252     1.0000 0.01990  0.58630  0.28220  Biso   1.000  C
  Zn29     1.0000 0.71027  0.36196  0.26309  Biso   1.000  Zn
  Zn30     1.0000 0.59535  0.16784  0.34810  Biso   1.000  Zn
  Zn31     1.0000 0.70773  0.55517  0.07225  Biso   1.000  Zn
  Zn32     1.0000 0.90615  0.24968  0.34401  Biso   1.000  Zn
  N120     1.0000 0.60810  0.24040  0.31690  Biso   1.000  N
  N121     1.0000 0.65420  0.31370  0.28270  Biso   1.000  N
  C253     1.0000 0.64820  0.26450  0.29970  Biso   1.000  C
  C254     1.0000 0.57400  0.28680  0.32650  Biso   1.000  C
  C255     1.0000 0.52480  0.29130  0.35320  Biso   1.000  C
  C256     1.0000 0.50400  0.34180  0.36550  Biso   1.000  C
  C257     1.0000 0.53220  0.38770  0.35120  Biso   1.000  C
  C258     1.0000 0.58140  0.38320  0.32450  Biso   1.000  C
  C259     1.0000 0.60220  0.33280  0.31220  Biso   1.000  C
  C260     1.0000 0.51000  0.44700  0.36900  Biso   1.000  C
  N122     1.0000 0.77110  0.31000  0.25400  Biso   1.000  N
  N123     1.0000 0.81190  0.30860  0.30190  Biso   1.000  N
  C261     1.0000 0.84230  0.26890  0.28200  Biso   1.000  C
  C262     1.0000 0.82020  0.24570  0.22190  Biso   1.000  C
  C263     1.0000 0.77630  0.27110  0.20460  Biso   1.000  C
  N124     1.0000 0.63570  0.60040  0.07020  Biso   1.000  N
  N125     1.0000 0.64750  0.64550  0.11190  Biso   1.000  N
  C264     1.0000 0.60510  0.67870  0.10790  Biso   1.000  C
  C265     1.0000 0.56700  0.65420  0.06370  Biso   1.000  C
  C266     1.0000 0.58590  0.60570  0.04040  Biso   1.000  C
  N126     1.0000 0.73210  0.08420  0.36750  Biso   1.000  N
  N127     1.0000 0.65660  0.12340  0.34290  Biso   1.000  N
  C267     1.0000 0.69310  0.10650  0.38270  Biso   1.000  C
  C268     1.0000 0.73260  0.09390  0.28520  Biso   1.000  C
  C269     1.0000 0.76860  0.08980  0.23100  Biso   1.000  C
  C270     1.0000 0.75860  0.11300  0.16130  Biso   1.000  C
  C271     1.0000 0.71250  0.14050  0.14580  Biso   1.000  C
  C272     1.0000 0.67650  0.14470  0.20000  Biso   1.000  C
  C273     1.0000 0.68650  0.12140  0.26960  Biso   1.000  C
  N128     1.0000 0.69690  0.40800  0.17700  Biso   1.000  N
  N129     1.0000 0.69560  0.48370  0.10290  Biso   1.000  N
  C274     1.0000 0.66980  0.39360  0.11820  Biso   1.000  C
  C275     1.0000 0.66600  0.44520  0.07570  Biso   1.000  C
  C276     1.0000 0.70970  0.45950  0.16480  Biso   1.000  C
  N130     1.0000 0.58480  0.19040  0.57500  Biso   1.000  N
  N131     1.0000 0.58940  0.20740  0.50490  Biso   1.000  N
  C277     1.0000 0.58680  0.16450  0.46000  Biso   1.000  C
  C278     1.0000 0.58060  0.12090  0.50230  Biso   1.000  C
  C279     1.0000 0.57930  0.13690  0.57330  Biso   1.000  C
  N132     1.0000 0.97800  0.26200  0.28600  Biso   1.000  N
  N133     1.0000 0.96600  0.23200  0.26400  Biso   1.000  N
  N134     1.0000 0.72080  0.43600  0.46090  Biso   1.000  N
  N135     1.0000 0.72700  0.40860  0.35050  Biso   1.000  N
  C280     1.0000 0.70590  0.40620  0.41270  Biso   1.000  C
  C281     1.0000 0.77030  0.46000  0.43480  Biso   1.000  C
  C282     1.0000 0.81150  0.49020  0.46510  Biso   1.000  C
  C283     1.0000 0.85280  0.50270  0.42200  Biso   1.000  C
  C284     1.0000 0.85290  0.48490  0.34900  Biso   1.000  C
  C285     1.0000 0.81180  0.45480  0.31830  Biso   1.000  C
  C286     1.0000 0.77050  0.44230  0.36140  Biso   1.000  C
  C287     1.0000 0.89900  0.53300  0.46600  Biso   1.000  C
  N136     1.0000 0.53590  0.13940  0.28660  Biso   1.000  N
  C288     1.0000 0.51990  0.08630  0.28220  Biso   1.000  C
  C289     1.0000 0.50000  0.25000  0.75000  Biso   1.000  C
  C290     1.0000 0.00000  0.75000  0.75000  Biso   1.000  C
  C291     1.0000 0.50000  0.75000  0.25000  Biso   1.000  C
  C292     1.0000 0.00000  0.25000  0.25000  Biso   1.000  C
  C293     1.0000 0.00000  0.33180  0.75000  Biso   1.000  C
  C294     1.0000 0.50000  0.83180  0.75000  Biso   1.000  C
  C295     1.0000 0.00000  0.66820  0.25000  Biso   1.000  C
  C296     1.0000 0.50000  0.16820  0.25000  Biso   1.000  C
