data_SUTBIT_clean
_audit_creation_date              2014-07-02
_audit_creation_method            'Materials Studio'
_symmetry_space_group_name_H-M    'P1'
_symmetry_Int_Tables_number       1
_symmetry_cell_setting            triclinic
loop_
_symmetry_equiv_pos_as_xyz
  x,y,z
_cell_length_a                    6.7655
_cell_length_b                    13.4648
_cell_length_c                    13.6379
_cell_angle_alpha                 119.5810
_cell_angle_beta                  104.3620
_cell_angle_gamma                 90.0001
loop_
_atom_site_label
_atom_site_type_symbol
_atom_site_fract_x
_atom_site_fract_y
_atom_site_fract_z
_atom_site_U_iso_or_equiv
_atom_site_adp_type
_atom_site_occupancy
Ni1    Ni    0.00000   0.50000   0.50000   0.01267  Uiso   1.00
Ni2    Ni    0.50000   0.50000   0.50000   0.01267  Uiso   1.00
H1     H     0.84497   0.08622   0.09088   0.01267  Uiso   1.00
H2     H     0.33686   0.23641   0.24920   0.01267  Uiso   1.00
H3     H     0.65503   0.49534   0.90912   0.01267  Uiso   1.00
H4     H     0.16314   0.48721   0.75080   0.01267  Uiso   1.00
H5     H     0.74591   0.50466   0.09088   0.01267  Uiso   1.00
H6     H     0.41234   0.51279   0.24920   0.01267  Uiso   1.00
H7     H     0.75409   0.91378   0.90912   0.01267  Uiso   1.00
H8     H     0.08766   0.76359   0.75080   0.01267  Uiso   1.00
H9     H     0.15503   0.91378   0.90912   0.01267  Uiso   1.00
H10    H     0.66314   0.76359   0.75080   0.01267  Uiso   1.00
H11    H     0.34497   0.50466   0.09088   0.01267  Uiso   1.00
H12    H     0.83686   0.51279   0.24920   0.01267  Uiso   1.00
H13    H     0.25409   0.49534   0.90912   0.01267  Uiso   1.00
H14    H     0.58766   0.48721   0.75080   0.01267  Uiso   1.00
H15    H     0.24591   0.08622   0.09088   0.01267  Uiso   1.00
H16    H     0.91234   0.23641   0.24920   0.01267  Uiso   1.00
C1     C     0.47873   0.26820   0.28272   0.01267  Uiso   1.00
C2     C     0.70492   0.05121   0.05398   0.01267  Uiso   1.00
C3     C     0.02127   0.48548   0.71728   0.01267  Uiso   1.00
C4     C     0.79508   0.49723   0.94602   0.01267  Uiso   1.00
C5     C     0.30399   0.51452   0.28272   0.01267  Uiso   1.00
C6     C     0.84906   0.50277   0.05398   0.01267  Uiso   1.00
C7     C     0.19601   0.73180   0.71728   0.01267  Uiso   1.00
C8     C     0.65094   0.94879   0.94602   0.01267  Uiso   1.00
C9     C     0.52127   0.73180   0.71728   0.01267  Uiso   1.00
C10    C     0.29508   0.94879   0.94602   0.01267  Uiso   1.00
C11    C     0.97873   0.51452   0.28272   0.01267  Uiso   1.00
C12    C     0.20492   0.50277   0.05398   0.01267  Uiso   1.00
C13    C     0.69601   0.48548   0.71728   0.01267  Uiso   1.00
C14    C     0.15094   0.49723   0.94602   0.01267  Uiso   1.00
C15    C     0.80399   0.26820   0.28272   0.01267  Uiso   1.00
C16    C     0.34906   0.05121   0.05398   0.01267  Uiso   1.00
C17    C     0.61031   0.20929   0.22062   0.01267  Uiso   1.00
C18    C     0.55399   0.10244   0.10798   0.01267  Uiso   1.00
C19    C     0.88969   0.48867   0.77938   0.01267  Uiso   1.00
C20    C     0.94601   0.49446   0.89202   0.01267  Uiso   1.00
C21    C     0.11031   0.51133   0.22062   0.01267  Uiso   1.00
C22    C     0.05399   0.50554   0.10798   0.01267  Uiso   1.00
C23    C     0.38969   0.79071   0.77938   0.01267  Uiso   1.00
C24    C     0.44601   0.89756   0.89202   0.01267  Uiso   1.00
N1     N     0.59108   0.36351   0.38318   0.01267  Uiso   1.00
N2     N     0.90892   0.48033   0.61682   0.01267  Uiso   1.00
N3     N     0.29210   0.51967   0.38318   0.01267  Uiso   1.00
N4     N     0.20790   0.63649   0.61682   0.01267  Uiso   1.00
N5     N     0.40892   0.63649   0.61682   0.01267  Uiso   1.00
N6     N     0.09108   0.51967   0.38318   0.01267  Uiso   1.00
N7     N     0.70790   0.48033   0.61682   0.01267  Uiso   1.00
N8     N     0.79210   0.36351   0.38318   0.01267  Uiso   1.00
