data_TEWFUY01_clean
_audit_creation_date              2014-07-02
_audit_creation_method            'Materials Studio'
_symmetry_space_group_name_H-M    'P1'
_symmetry_Int_Tables_number       1
_symmetry_cell_setting            triclinic
loop_
_symmetry_equiv_pos_as_xyz
  x,y,z
_cell_length_a                    14.6232
_cell_length_b                    16.9144
_cell_length_c                    17.8933
_cell_angle_alpha                 118.2060
_cell_angle_beta                  114.1180
_cell_angle_gamma                 90.0001
loop_
_atom_site_label
_atom_site_type_symbol
_atom_site_fract_x
_atom_site_fract_y
_atom_site_fract_z
_atom_site_U_iso_or_equiv
_atom_site_adp_type
_atom_site_occupancy
Cu1    Cu    0.50000   0.50000   0.50000   0.01267  Uiso   1.00
Cu2    Cu    0.00000   0.50000   0.50000   0.01267  Uiso   1.00
H1     H     0.29980   0.55270   0.46220   0.01267  Uiso   1.00
H2     H     0.55640   0.62940   0.79720   0.01267  Uiso   1.00
H3     H     0.29660   0.76780   0.32420   0.01267  Uiso   1.00
H4     H     0.21420   0.76220   0.36020   0.01267  Uiso   1.00
H5     H     0.20460   0.63370   0.39800   0.01267  Uiso   1.00
H6     H     0.54860   0.71090   0.94060   0.01267  Uiso   1.00
H7     H     0.87530   0.49900   0.05440   0.01267  Uiso   1.00
H8     H     0.43450   0.69320   0.35080   0.01267  Uiso   1.00
H9     H     0.52580   0.61210   0.41880   0.01267  Uiso   1.00
H10    H     0.16240   0.40950   0.46220   0.01267  Uiso   1.00
H11    H     0.24080   0.66780   0.79720   0.01267  Uiso   1.00
H12    H     0.02760   0.05640   0.32420   0.01267  Uiso   1.00
H13    H     0.14600   0.09800   0.36020   0.01267  Uiso   1.00
H14    H     0.19340   0.26430   0.39800   0.01267  Uiso   1.00
H15    H     0.39200   0.72970   0.94060   0.01267  Uiso   1.00
H16    H     0.17910   0.05540   0.05440   0.01267  Uiso   1.00
H17    H     0.91630   0.15760   0.35080   0.01267  Uiso   1.00
H18    H     0.89300   0.30670   0.41880   0.01267  Uiso   1.00
H19    H     0.70020   0.44730   0.53780   0.01267  Uiso   1.00
H20    H     0.44360   0.37060   0.20280   0.01267  Uiso   1.00
H21    H     0.70340   0.23220   0.67580   0.01267  Uiso   1.00
H22    H     0.78580   0.23780   0.63980   0.01267  Uiso   1.00
H23    H     0.79540   0.36630   0.60200   0.01267  Uiso   1.00
H24    H     0.45140   0.28910   0.05940   0.01267  Uiso   1.00
H25    H     0.12470   0.50100   0.94560   0.01267  Uiso   1.00
H26    H     0.56550   0.30680   0.64920   0.01267  Uiso   1.00
H27    H     0.47420   0.38790   0.58120   0.01267  Uiso   1.00
H28    H     0.83760   0.59050   0.53780   0.01267  Uiso   1.00
H29    H     0.75920   0.33220   0.20280   0.01267  Uiso   1.00
H30    H     0.97240   0.94360   0.67580   0.01267  Uiso   1.00
H31    H     0.85400   0.90200   0.63980   0.01267  Uiso   1.00
H32    H     0.80660   0.73570   0.60200   0.01267  Uiso   1.00
H33    H     0.60800   0.27030   0.05940   0.01267  Uiso   1.00
H34    H     0.82090   0.94460   0.94560   0.01267  Uiso   1.00
H35    H     0.08370   0.84240   0.64920   0.01267  Uiso   1.00
H36    H     0.10700   0.69330   0.58120   0.01267  Uiso   1.00
C1     C     0.40182   0.59822   0.70924   0.01267  Uiso   1.00
C2     C     0.40940   0.54051   0.61840   0.01267  Uiso   1.00
C3     C     0.19312   0.62408   0.14704   0.01267  Uiso   1.00
C4     C     0.32776   0.58169   0.43932   0.01267  Uiso   1.00
C5     C     0.30957   0.67316   0.36794   0.01267  Uiso   1.00
C6     C     0.49164   0.63664   0.79648   0.01267  Uiso   1.00
C7     C     0.24893   0.72500   0.32286   0.01267  Uiso   1.00
C8     C     0.27083   0.63001   0.40126   0.01267  Uiso   1.00
C9     C     0.48714   0.68514   0.88168   0.01267  Uiso   1.00
C10    C     0.07220   0.62350   0.19880   0.01267  Uiso   1.00
C11    C     0.92479   0.49929   0.03278   0.01267  Uiso   1.00
C12    C     0.40532   0.66527   0.37384   0.01267  Uiso   1.00
C13    C     0.02276   0.55541   0.09292   0.01267  Uiso   1.00
C14    C     0.09611   0.55701   0.06242   0.01267  Uiso   1.00
C15    C     0.45900   0.61601   0.41380   0.01267  Uiso   1.00
C16    C     0.30742   0.61102   0.70924   0.01267  Uiso   1.00
C17    C     0.20900   0.57789   0.61840   0.01267  Uiso   1.00
C18    C     0.95392   0.02296   0.14704   0.01267  Uiso   1.00
C19    C     0.11156   0.35763   0.43932   0.01267  Uiso   1.00
C20    C     0.05837   0.19478   0.36794   0.01267  Uiso   1.00
C21    C     0.30484   0.65984   0.79648   0.01267  Uiso   1.00
C22    C     0.07393   0.09786   0.32286   0.01267  Uiso   1.00
C23    C     0.13043   0.27125   0.40126   0.01267  Uiso   1.00
C24    C     0.39454   0.69654   0.88168   0.01267  Uiso   1.00
C25    C     0.12660   0.07530   0.19880   0.01267  Uiso   1.00
C26    C     0.10799   0.03349   0.03278   0.01267  Uiso   1.00
C27    C     0.96852   0.20857   0.37384   0.01267  Uiso   1.00
C28    C     0.07016   0.03751   0.09292   0.01267  Uiso   1.00
C29    C     0.96631   0.00541   0.06242   0.01267  Uiso   1.00
C30    C     0.95480   0.29779   0.41380   0.01267  Uiso   1.00
C31    C     0.59818   0.40178   0.29076   0.01267  Uiso   1.00
C32    C     0.59060   0.45949   0.38160   0.01267  Uiso   1.00
C33    C     0.80688   0.37592   0.85296   0.01267  Uiso   1.00
C34    C     0.67224   0.41831   0.56068   0.01267  Uiso   1.00
C35    C     0.69043   0.32684   0.63206   0.01267  Uiso   1.00
C36    C     0.50836   0.36336   0.20352   0.01267  Uiso   1.00
C37    C     0.75107   0.27500   0.67714   0.01267  Uiso   1.00
C38    C     0.72917   0.36999   0.59874   0.01267  Uiso   1.00
C39    C     0.51286   0.31486   0.11832   0.01267  Uiso   1.00
C40    C     0.92780   0.37650   0.80120   0.01267  Uiso   1.00
C41    C     0.07521   0.50071   0.96722   0.01267  Uiso   1.00
C42    C     0.59468   0.33473   0.62616   0.01267  Uiso   1.00
C43    C     0.97724   0.44459   0.90708   0.01267  Uiso   1.00
C44    C     0.90389   0.44299   0.93758   0.01267  Uiso   1.00
C45    C     0.54100   0.38399   0.58620   0.01267  Uiso   1.00
C46    C     0.69258   0.38898   0.29076   0.01267  Uiso   1.00
C47    C     0.79100   0.42211   0.38160   0.01267  Uiso   1.00
C48    C     0.04608   0.97704   0.85296   0.01267  Uiso   1.00
C49    C     0.88844   0.64237   0.56068   0.01267  Uiso   1.00
C50    C     0.94163   0.80522   0.63206   0.01267  Uiso   1.00
C51    C     0.69516   0.34016   0.20352   0.01267  Uiso   1.00
C52    C     0.92607   0.90214   0.67714   0.01267  Uiso   1.00
C53    C     0.86957   0.72875   0.59874   0.01267  Uiso   1.00
C54    C     0.60546   0.30346   0.11832   0.01267  Uiso   1.00
C55    C     0.87340   0.92470   0.80120   0.01267  Uiso   1.00
C56    C     0.89201   0.96651   0.96722   0.01267  Uiso   1.00
C57    C     0.03148   0.79143   0.62616   0.01267  Uiso   1.00
C58    C     0.92984   0.96249   0.90708   0.01267  Uiso   1.00
C59    C     0.03369   0.99459   0.93758   0.01267  Uiso   1.00
C60    C     0.04520   0.70221   0.58620   0.01267  Uiso   1.00
N1     N     0.17245   0.66109   0.22470   0.01267  Uiso   1.00
N2     N     0.42102   0.57416   0.44524   0.01267  Uiso   1.00
N3     N     0.05225   0.06361   0.22470   0.01267  Uiso   1.00
N4     N     0.02422   0.37108   0.44524   0.01267  Uiso   1.00
N5     N     0.82755   0.33891   0.77530   0.01267  Uiso   1.00
N6     N     0.57898   0.42584   0.55476   0.01267  Uiso   1.00
N7     N     0.94775   0.93639   0.77530   0.01267  Uiso   1.00
N8     N     0.97578   0.62892   0.55476   0.01267  Uiso   1.00
O1     O     0.48611   0.57378   0.61536   0.01267  Uiso   1.00
O2     O     0.34736   0.46604   0.55420   0.01267  Uiso   1.00
O3     O     0.03574   0.64217   0.25268   0.01267  Uiso   1.00
O4     O     0.27517   0.64365   0.15082   0.01267  Uiso   1.00
O5     O     0.12925   0.54158   0.61536   0.01267  Uiso   1.00
O6     O     0.20684   0.58816   0.55420   0.01267  Uiso   1.00
O7     O     0.21694   0.11051   0.25268   0.01267  Uiso   1.00
O8     O     0.87565   0.00717   0.15082   0.01267  Uiso   1.00
O9     O     0.51389   0.42622   0.38464   0.01267  Uiso   1.00
O10    O     0.65264   0.53396   0.44580   0.01267  Uiso   1.00
O11    O     0.96426   0.35783   0.74732   0.01267  Uiso   1.00
O12    O     0.72483   0.35635   0.84918   0.01267  Uiso   1.00
O13    O     0.87075   0.45842   0.38464   0.01267  Uiso   1.00
O14    O     0.79316   0.41184   0.44580   0.01267  Uiso   1.00
O15    O     0.78306   0.88949   0.74732   0.01267  Uiso   1.00
O16    O     0.12435   0.99283   0.84918   0.01267  Uiso   1.00
Cu3    Cu    0.00000   0.00000   0.50000   0.01267  Uiso   1.00
Cu4    Cu    0.50000   0.00000   0.50000   0.01267  Uiso   1.00
H37    H     0.20020   0.09050   0.53780   0.01267  Uiso   1.00
H38    H     0.94360   0.83220   0.20280   0.01267  Uiso   1.00
H39    H     0.20340   0.44360   0.67580   0.01267  Uiso   1.00
H40    H     0.28580   0.40200   0.63980   0.01267  Uiso   1.00
H41    H     0.29540   0.23570   0.60200   0.01267  Uiso   1.00
H42    H     0.95140   0.77030   0.05940   0.01267  Uiso   1.00
H43    H     0.62470   0.44460   0.94560   0.01267  Uiso   1.00
H44    H     0.06550   0.34240   0.64920   0.01267  Uiso   1.00
H45    H     0.97420   0.19330   0.58120   0.01267  Uiso   1.00
H46    H     0.33760   0.94730   0.53780   0.01267  Uiso   1.00
H47    H     0.25920   0.87060   0.20280   0.01267  Uiso   1.00
H48    H     0.47240   0.73220   0.67580   0.01267  Uiso   1.00
H49    H     0.35400   0.73780   0.63980   0.01267  Uiso   1.00
H50    H     0.30660   0.86630   0.60200   0.01267  Uiso   1.00
H51    H     0.10800   0.78910   0.05940   0.01267  Uiso   1.00
H52    H     0.32090   0.00100   0.94560   0.01267  Uiso   1.00
H53    H     0.58370   0.80680   0.64920   0.01267  Uiso   1.00
H54    H     0.60700   0.88790   0.58120   0.01267  Uiso   1.00
H55    H     0.79980   0.90950   0.46220   0.01267  Uiso   1.00
H56    H     0.05640   0.16780   0.79720   0.01267  Uiso   1.00
H57    H     0.79660   0.55640   0.32420   0.01267  Uiso   1.00
H58    H     0.71420   0.59800   0.36020   0.01267  Uiso   1.00
H59    H     0.70460   0.76430   0.39800   0.01267  Uiso   1.00
H60    H     0.04860   0.22970   0.94060   0.01267  Uiso   1.00
H61    H     0.37530   0.55540   0.05440   0.01267  Uiso   1.00
H62    H     0.93450   0.65760   0.35080   0.01267  Uiso   1.00
H63    H     0.02580   0.80670   0.41880   0.01267  Uiso   1.00
H64    H     0.66240   0.05270   0.46220   0.01267  Uiso   1.00
H65    H     0.74080   0.12940   0.79720   0.01267  Uiso   1.00
H66    H     0.52760   0.26780   0.32420   0.01267  Uiso   1.00
H67    H     0.64600   0.26220   0.36020   0.01267  Uiso   1.00
H68    H     0.69340   0.13370   0.39800   0.01267  Uiso   1.00
H69    H     0.89200   0.21090   0.94060   0.01267  Uiso   1.00
H70    H     0.67910   0.99900   0.05440   0.01267  Uiso   1.00
H71    H     0.41630   0.19320   0.35080   0.01267  Uiso   1.00
H72    H     0.39300   0.11210   0.41880   0.01267  Uiso   1.00
C61    C     0.09818   0.88898   0.29076   0.01267  Uiso   1.00
C62    C     0.09060   0.92211   0.38160   0.01267  Uiso   1.00
C63    C     0.30688   0.47704   0.85296   0.01267  Uiso   1.00
C64    C     0.17224   0.14237   0.56068   0.01267  Uiso   1.00
C65    C     0.19043   0.30522   0.63206   0.01267  Uiso   1.00
C66    C     0.00836   0.84016   0.20352   0.01267  Uiso   1.00
C67    C     0.25107   0.40214   0.67714   0.01267  Uiso   1.00
C68    C     0.22917   0.22875   0.59874   0.01267  Uiso   1.00
C69    C     0.01286   0.80346   0.11832   0.01267  Uiso   1.00
C70    C     0.42780   0.42470   0.80120   0.01267  Uiso   1.00
C71    C     0.57521   0.46651   0.96722   0.01267  Uiso   1.00
C72    C     0.09468   0.29143   0.62616   0.01267  Uiso   1.00
C73    C     0.47724   0.46249   0.90708   0.01267  Uiso   1.00
C74    C     0.40389   0.49459   0.93758   0.01267  Uiso   1.00
C75    C     0.04100   0.20221   0.58620   0.01267  Uiso   1.00
C76    C     0.19258   0.90178   0.29076   0.01267  Uiso   1.00
C77    C     0.29100   0.95949   0.38160   0.01267  Uiso   1.00
C78    C     0.54608   0.87592   0.85296   0.01267  Uiso   1.00
C79    C     0.38844   0.91831   0.56068   0.01267  Uiso   1.00
C80    C     0.44163   0.82684   0.63206   0.01267  Uiso   1.00
C81    C     0.19516   0.86336   0.20352   0.01267  Uiso   1.00
C82    C     0.42607   0.77500   0.67714   0.01267  Uiso   1.00
C83    C     0.36957   0.86999   0.59874   0.01267  Uiso   1.00
C84    C     0.10546   0.81486   0.11832   0.01267  Uiso   1.00
C85    C     0.37340   0.87650   0.80120   0.01267  Uiso   1.00
C86    C     0.39201   0.00071   0.96722   0.01267  Uiso   1.00
C87    C     0.53148   0.83473   0.62616   0.01267  Uiso   1.00
C88    C     0.42984   0.94459   0.90708   0.01267  Uiso   1.00
C89    C     0.53369   0.94299   0.93758   0.01267  Uiso   1.00
C90    C     0.54520   0.88399   0.58620   0.01267  Uiso   1.00
C91    C     0.90182   0.11102   0.70924   0.01267  Uiso   1.00
C92    C     0.90940   0.07789   0.61840   0.01267  Uiso   1.00
C93    C     0.69312   0.52296   0.14704   0.01267  Uiso   1.00
C94    C     0.82776   0.85763   0.43932   0.01267  Uiso   1.00
C95    C     0.80957   0.69478   0.36794   0.01267  Uiso   1.00
C96    C     0.99164   0.15984   0.79648   0.01267  Uiso   1.00
C97    C     0.74893   0.59786   0.32286   0.01267  Uiso   1.00
C98    C     0.77083   0.77125   0.40126   0.01267  Uiso   1.00
C99    C     0.98714   0.19654   0.88168   0.01267  Uiso   1.00
C100   C     0.57220   0.57530   0.19880   0.01267  Uiso   1.00
C101   C     0.42479   0.53349   0.03278   0.01267  Uiso   1.00
C102   C     0.90532   0.70857   0.37384   0.01267  Uiso   1.00
C103   C     0.52276   0.53751   0.09292   0.01267  Uiso   1.00
C104   C     0.59611   0.50541   0.06242   0.01267  Uiso   1.00
C105   C     0.95900   0.79779   0.41380   0.01267  Uiso   1.00
C106   C     0.80742   0.09822   0.70924   0.01267  Uiso   1.00
C107   C     0.70900   0.04051   0.61840   0.01267  Uiso   1.00
C108   C     0.45392   0.12408   0.14704   0.01267  Uiso   1.00
C109   C     0.61156   0.08169   0.43932   0.01267  Uiso   1.00
C110   C     0.55837   0.17316   0.36794   0.01267  Uiso   1.00
C111   C     0.80484   0.13664   0.79648   0.01267  Uiso   1.00
C112   C     0.57393   0.22500   0.32286   0.01267  Uiso   1.00
C113   C     0.63043   0.13001   0.40126   0.01267  Uiso   1.00
C114   C     0.89454   0.18514   0.88168   0.01267  Uiso   1.00
C115   C     0.62660   0.12350   0.19880   0.01267  Uiso   1.00
C116   C     0.60799   0.99929   0.03278   0.01267  Uiso   1.00
C117   C     0.46852   0.16527   0.37384   0.01267  Uiso   1.00
C118   C     0.57016   0.05541   0.09292   0.01267  Uiso   1.00
C119   C     0.46631   0.05701   0.06242   0.01267  Uiso   1.00
C120   C     0.45480   0.11601   0.41380   0.01267  Uiso   1.00
N9     N     0.32755   0.43639   0.77530   0.01267  Uiso   1.00
N10    N     0.07898   0.12892   0.55476   0.01267  Uiso   1.00
N11    N     0.44775   0.83891   0.77530   0.01267  Uiso   1.00
N12    N     0.47578   0.92584   0.55476   0.01267  Uiso   1.00
N13    N     0.67245   0.56361   0.22470   0.01267  Uiso   1.00
N14    N     0.92102   0.87108   0.44524   0.01267  Uiso   1.00
N15    N     0.55225   0.16109   0.22470   0.01267  Uiso   1.00
N16    N     0.52422   0.07416   0.44524   0.01267  Uiso   1.00
O17    O     0.01389   0.95842   0.38464   0.01267  Uiso   1.00
O18    O     0.15264   0.91184   0.44580   0.01267  Uiso   1.00
O19    O     0.46426   0.38949   0.74732   0.01267  Uiso   1.00
O20    O     0.22483   0.49283   0.84918   0.01267  Uiso   1.00
O21    O     0.37075   0.92622   0.38464   0.01267  Uiso   1.00
O22    O     0.29316   0.03396   0.44580   0.01267  Uiso   1.00
O23    O     0.28306   0.85783   0.74732   0.01267  Uiso   1.00
O24    O     0.62435   0.85635   0.84918   0.01267  Uiso   1.00
O25    O     0.98611   0.04158   0.61536   0.01267  Uiso   1.00
O26    O     0.84736   0.08816   0.55420   0.01267  Uiso   1.00
O27    O     0.53574   0.61051   0.25268   0.01267  Uiso   1.00
O28    O     0.77517   0.50717   0.15082   0.01267  Uiso   1.00
O29    O     0.62925   0.07378   0.61536   0.01267  Uiso   1.00
O30    O     0.70684   0.96604   0.55420   0.01267  Uiso   1.00
O31    O     0.71694   0.14217   0.25268   0.01267  Uiso   1.00
O32    O     0.37565   0.14365   0.15082   0.01267  Uiso   1.00
