data_image0
_cell_length_a       16.5476
_cell_length_b       16.5476
_cell_length_c       7.8167
_cell_angle_alpha    90
_cell_angle_beta     90
_cell_angle_gamma    120

_symmetry_space_group_name_H-M    "P 1"
_symmetry_int_tables_number       1

loop_
  _symmetry_equiv_pos_as_xyz
  'x, y, z'

loop_
  _atom_site_label
  _atom_site_occupancy
  _atom_site_fract_x
  _atom_site_fract_y
  _atom_site_fract_z
  _atom_site_thermal_displace_type
  _atom_site_B_iso_or_equiv
  _atom_site_type_symbol
  O1       1.0000 0.44650  0.74930  0.54690  Biso   1.000  O
  C1       1.0000 0.54810  0.91610  0.54230  Biso   1.000  C
  O2       1.0000 0.44600  0.83050  0.76240  Biso   1.000  O
  C2       1.0000 0.47750  0.82870  0.61470  Biso   1.000  C
  C3       1.0000 0.59590  0.91680  0.38790  Biso   1.000  C
  H1       1.0000 0.58360  0.86050  0.33940  Biso   1.000  H
  C4       1.0000 0.67700  0.90530  0.06700  Biso   1.000  C
  H2       1.0000 0.68240  0.86490  0.14800  Biso   1.000  H
  H3       1.0000 0.71310  0.91100  0.96690  Biso   1.000  H
  H4       1.0000 0.61250  0.87940  0.03470  Biso   1.000  H
  C5       1.0000 0.75370  0.93800  0.16800  Biso   1.000  C
  H5       1.0000 0.81010  0.97030  0.23430  Biso   1.000  H
  H6       1.0000 0.76770  0.92210  0.05850  Biso   1.000  H
  H7       1.0000 0.71010  0.88200  0.22730  Biso   1.000  H
  C6       1.0000 0.69200  0.05080  0.00200  Biso   1.000  C
  H8       1.0000 0.64180  0.06070  0.03540  Biso   1.000  H
  H9       1.0000 0.67490  0.01370  0.89970  Biso   1.000  H
  H10      1.0000 0.74690  0.10990  0.98050  Biso   1.000  H
  O3       1.0000 0.25070  0.69720  0.54690  Biso   1.000  O
  C7       1.0000 0.08390  0.63200  0.54230  Biso   1.000  C
  O4       1.0000 0.16950  0.61550  0.76240  Biso   1.000  O
  C8       1.0000 0.17130  0.64880  0.61470  Biso   1.000  C
  C9       1.0000 0.08320  0.67910  0.38790  Biso   1.000  C
  H11      1.0000 0.13950  0.72310  0.33940  Biso   1.000  H
  C10      1.0000 0.09470  0.77170  0.06700  Biso   1.000  C
  H12      1.0000 0.13510  0.81750  0.14800  Biso   1.000  H
  H13      1.0000 0.08900  0.80210  0.96690  Biso   1.000  H
  H14      1.0000 0.12060  0.73310  0.03470  Biso   1.000  H
  C11      1.0000 0.06200  0.81570  0.16800  Biso   1.000  C
  H15      1.0000 0.02970  0.83980  0.23430  Biso   1.000  H
  H16      1.0000 0.07790  0.84560  0.05850  Biso   1.000  H
  H17      1.0000 0.11800  0.82810  0.22730  Biso   1.000  H
  C12      1.0000 0.94920  0.64120  0.00200  Biso   1.000  C
  H18      1.0000 0.93930  0.58110  0.03540  Biso   1.000  H
  H19      1.0000 0.98630  0.66120  0.89970  Biso   1.000  H
  H20      1.0000 0.89010  0.63700  0.98050  Biso   1.000  H
  O5       1.0000 0.30280  0.55350  0.54690  Biso   1.000  O
  C13      1.0000 0.36800  0.45190  0.54230  Biso   1.000  C
  O6       1.0000 0.38450  0.55400  0.76240  Biso   1.000  O
  C14      1.0000 0.35120  0.52250  0.61470  Biso   1.000  C
  C15      1.0000 0.32090  0.40410  0.38790  Biso   1.000  C
  H21      1.0000 0.27690  0.41640  0.33940  Biso   1.000  H
  C16      1.0000 0.22830  0.32300  0.06700  Biso   1.000  C
  H22      1.0000 0.18250  0.31760  0.14800  Biso   1.000  H
  H23      1.0000 0.19790  0.28690  0.96690  Biso   1.000  H
  H24      1.0000 0.26690  0.38750  0.03470  Biso   1.000  H
  C17      1.0000 0.18430  0.24630  0.16800  Biso   1.000  C
  H25      1.0000 0.16020  0.18990  0.23430  Biso   1.000  H
  H26      1.0000 0.15440  0.23230  0.05850  Biso   1.000  H
  H27      1.0000 0.17190  0.28990  0.22730  Biso   1.000  H
  C18      1.0000 0.35880  0.30800  0.00200  Biso   1.000  C
  H28      1.0000 0.41890  0.35820  0.03540  Biso   1.000  H
  H29      1.0000 0.33880  0.32510  0.89970  Biso   1.000  H
  H30      1.0000 0.36300  0.25310  0.98050  Biso   1.000  H
  O7       1.0000 0.55350  0.25070  0.04690  Biso   1.000  O
  C19      1.0000 0.45190  0.08390  0.04230  Biso   1.000  C
  O8       1.0000 0.55400  0.16950  0.26240  Biso   1.000  O
  C20      1.0000 0.52250  0.17130  0.11470  Biso   1.000  C
  C21      1.0000 0.40410  0.08320  0.88790  Biso   1.000  C
  H31      1.0000 0.41640  0.13950  0.83940  Biso   1.000  H
  C22      1.0000 0.32300  0.09470  0.56700  Biso   1.000  C
  H32      1.0000 0.31760  0.13510  0.64800  Biso   1.000  H
  H33      1.0000 0.28690  0.08900  0.46690  Biso   1.000  H
  H34      1.0000 0.38750  0.12060  0.53470  Biso   1.000  H
  C23      1.0000 0.24630  0.06200  0.66800  Biso   1.000  C
  H35      1.0000 0.18990  0.02970  0.73430  Biso   1.000  H
  H36      1.0000 0.23230  0.07790  0.55850  Biso   1.000  H
  H37      1.0000 0.28990  0.11800  0.72730  Biso   1.000  H
  C24      1.0000 0.30800  0.94920  0.50200  Biso   1.000  C
  H38      1.0000 0.35820  0.93930  0.53540  Biso   1.000  H
  H39      1.0000 0.32510  0.98630  0.39970  Biso   1.000  H
  H40      1.0000 0.25310  0.89010  0.48050  Biso   1.000  H
  O9       1.0000 0.74930  0.30280  0.04690  Biso   1.000  O
  C25      1.0000 0.91610  0.36800  0.04230  Biso   1.000  C
  O10      1.0000 0.83050  0.38450  0.26240  Biso   1.000  O
  C26      1.0000 0.82870  0.35120  0.11470  Biso   1.000  C
  C27      1.0000 0.91680  0.32090  0.88790  Biso   1.000  C
  H41      1.0000 0.86050  0.27690  0.83940  Biso   1.000  H
  C28      1.0000 0.90530  0.22830  0.56700  Biso   1.000  C
  H42      1.0000 0.86490  0.18250  0.64800  Biso   1.000  H
  H43      1.0000 0.91100  0.19790  0.46690  Biso   1.000  H
  H44      1.0000 0.87940  0.26690  0.53470  Biso   1.000  H
  C29      1.0000 0.93800  0.18430  0.66800  Biso   1.000  C
  H45      1.0000 0.97030  0.16020  0.73430  Biso   1.000  H
  H46      1.0000 0.92210  0.15440  0.55850  Biso   1.000  H
  H47      1.0000 0.88200  0.17190  0.72730  Biso   1.000  H
  C30      1.0000 0.05080  0.35880  0.50200  Biso   1.000  C
  H48      1.0000 0.06070  0.41890  0.53540  Biso   1.000  H
  H49      1.0000 0.01370  0.33880  0.39970  Biso   1.000  H
  H50      1.0000 0.10990  0.36300  0.48050  Biso   1.000  H
  O11      1.0000 0.69720  0.44650  0.04690  Biso   1.000  O
  C31      1.0000 0.63200  0.54810  0.04230  Biso   1.000  C
  O12      1.0000 0.61550  0.44600  0.26240  Biso   1.000  O
  C32      1.0000 0.64880  0.47750  0.11470  Biso   1.000  C
  C33      1.0000 0.67910  0.59590  0.88790  Biso   1.000  C
  H51      1.0000 0.72310  0.58360  0.83940  Biso   1.000  H
  C34      1.0000 0.77170  0.67700  0.56700  Biso   1.000  C
  H52      1.0000 0.81750  0.68240  0.64800  Biso   1.000  H
  H53      1.0000 0.80210  0.71310  0.46690  Biso   1.000  H
  H54      1.0000 0.73310  0.61250  0.53470  Biso   1.000  H
  C35      1.0000 0.81570  0.75370  0.66800  Biso   1.000  C
  H55      1.0000 0.83980  0.81010  0.73430  Biso   1.000  H
  H56      1.0000 0.84560  0.76770  0.55850  Biso   1.000  H
  H57      1.0000 0.82810  0.71010  0.72730  Biso   1.000  H
  C36      1.0000 0.64120  0.69200  0.50200  Biso   1.000  C
  H58      1.0000 0.58110  0.64180  0.53540  Biso   1.000  H
  H59      1.0000 0.66120  0.67490  0.39970  Biso   1.000  H
  H60      1.0000 0.63700  0.74690  0.48050  Biso   1.000  H
  O13      1.0000 0.25070  0.55350  0.04690  Biso   1.000  O
  C37      1.0000 0.08390  0.45190  0.04230  Biso   1.000  C
  O14      1.0000 0.16950  0.55400  0.26240  Biso   1.000  O
  C38      1.0000 0.17130  0.52250  0.11470  Biso   1.000  C
  C39      1.0000 0.08320  0.40410  0.88790  Biso   1.000  C
  H61      1.0000 0.13950  0.41640  0.83940  Biso   1.000  H
  C40      1.0000 0.09470  0.32300  0.56700  Biso   1.000  C
  H62      1.0000 0.13510  0.31760  0.64800  Biso   1.000  H
  H63      1.0000 0.08900  0.28690  0.46690  Biso   1.000  H
  H64      1.0000 0.12060  0.38750  0.53470  Biso   1.000  H
  C41      1.0000 0.06200  0.24630  0.66800  Biso   1.000  C
  H65      1.0000 0.02970  0.18990  0.73430  Biso   1.000  H
  H66      1.0000 0.07790  0.23230  0.55850  Biso   1.000  H
  H67      1.0000 0.11800  0.28990  0.72730  Biso   1.000  H
  C42      1.0000 0.94920  0.30800  0.50200  Biso   1.000  C
  H68      1.0000 0.93930  0.35820  0.53540  Biso   1.000  H
  H69      1.0000 0.98630  0.32510  0.39970  Biso   1.000  H
  H70      1.0000 0.89010  0.25310  0.48050  Biso   1.000  H
  O15      1.0000 0.30280  0.74930  0.04690  Biso   1.000  O
  C43      1.0000 0.36800  0.91610  0.04230  Biso   1.000  C
  O16      1.0000 0.38450  0.83050  0.26240  Biso   1.000  O
  C44      1.0000 0.35120  0.82870  0.11470  Biso   1.000  C
  C45      1.0000 0.32090  0.91680  0.88790  Biso   1.000  C
  H71      1.0000 0.27690  0.86050  0.83940  Biso   1.000  H
  C46      1.0000 0.22830  0.90530  0.56700  Biso   1.000  C
  H72      1.0000 0.18250  0.86490  0.64800  Biso   1.000  H
  H73      1.0000 0.19790  0.91100  0.46690  Biso   1.000  H
  H74      1.0000 0.26690  0.87940  0.53470  Biso   1.000  H
  C47      1.0000 0.18430  0.93800  0.66800  Biso   1.000  C
  H75      1.0000 0.16020  0.97030  0.73430  Biso   1.000  H
  H76      1.0000 0.15440  0.92210  0.55850  Biso   1.000  H
  H77      1.0000 0.17190  0.88200  0.72730  Biso   1.000  H
  C48      1.0000 0.35880  0.05080  0.50200  Biso   1.000  C
  H78      1.0000 0.41890  0.06070  0.53540  Biso   1.000  H
  H79      1.0000 0.33880  0.01370  0.39970  Biso   1.000  H
  H80      1.0000 0.36300  0.10990  0.48050  Biso   1.000  H
  O17      1.0000 0.44650  0.69720  0.04690  Biso   1.000  O
  C49      1.0000 0.54810  0.63200  0.04230  Biso   1.000  C
  O18      1.0000 0.44600  0.61550  0.26240  Biso   1.000  O
  C50      1.0000 0.47750  0.64880  0.11470  Biso   1.000  C
  C51      1.0000 0.59590  0.67910  0.88790  Biso   1.000  C
  H81      1.0000 0.58360  0.72310  0.83940  Biso   1.000  H
  C52      1.0000 0.67700  0.77170  0.56700  Biso   1.000  C
  H82      1.0000 0.68240  0.81750  0.64800  Biso   1.000  H
  H83      1.0000 0.71310  0.80210  0.46690  Biso   1.000  H
  H84      1.0000 0.61250  0.73310  0.53470  Biso   1.000  H
  C53      1.0000 0.75370  0.81570  0.66800  Biso   1.000  C
  H85      1.0000 0.81010  0.83980  0.73430  Biso   1.000  H
  H86      1.0000 0.76770  0.84560  0.55850  Biso   1.000  H
  H87      1.0000 0.71010  0.82810  0.72730  Biso   1.000  H
  C54      1.0000 0.69200  0.64120  0.50200  Biso   1.000  C
  H88      1.0000 0.64180  0.58110  0.53540  Biso   1.000  H
  H89      1.0000 0.67490  0.66120  0.39970  Biso   1.000  H
  H90      1.0000 0.74690  0.63700  0.48050  Biso   1.000  H
  O19      1.0000 0.74930  0.44650  0.54690  Biso   1.000  O
  C55      1.0000 0.91610  0.54810  0.54230  Biso   1.000  C
  O20      1.0000 0.83050  0.44600  0.76240  Biso   1.000  O
  C56      1.0000 0.82870  0.47750  0.61470  Biso   1.000  C
  C57      1.0000 0.91680  0.59590  0.38790  Biso   1.000  C
  H91      1.0000 0.86050  0.58360  0.33940  Biso   1.000  H
  C58      1.0000 0.90530  0.67700  0.06700  Biso   1.000  C
  H92      1.0000 0.86490  0.68240  0.14800  Biso   1.000  H
  H93      1.0000 0.91100  0.71310  0.96690  Biso   1.000  H
  H94      1.0000 0.87940  0.61250  0.03470  Biso   1.000  H
  C59      1.0000 0.93800  0.75370  0.16800  Biso   1.000  C
  H95      1.0000 0.97030  0.81010  0.23430  Biso   1.000  H
  H96      1.0000 0.92210  0.76770  0.05850  Biso   1.000  H
  H97      1.0000 0.88200  0.71010  0.22730  Biso   1.000  H
  C60      1.0000 0.05080  0.69200  0.00200  Biso   1.000  C
  H98      1.0000 0.06070  0.64180  0.03540  Biso   1.000  H
  H99      1.0000 0.01370  0.67490  0.89970  Biso   1.000  H
  H100     1.0000 0.10990  0.74690  0.98050  Biso   1.000  H
  O21      1.0000 0.69720  0.25070  0.54690  Biso   1.000  O
  C61      1.0000 0.63200  0.08390  0.54230  Biso   1.000  C
  O22      1.0000 0.61550  0.16950  0.76240  Biso   1.000  O
  C62      1.0000 0.64880  0.17130  0.61470  Biso   1.000  C
  C63      1.0000 0.67910  0.08320  0.38790  Biso   1.000  C
  H101     1.0000 0.72310  0.13950  0.33940  Biso   1.000  H
  C64      1.0000 0.77170  0.09470  0.06700  Biso   1.000  C
  H102     1.0000 0.81750  0.13510  0.14800  Biso   1.000  H
  H103     1.0000 0.80210  0.08900  0.96690  Biso   1.000  H
  H104     1.0000 0.73310  0.12060  0.03470  Biso   1.000  H
  C65      1.0000 0.81570  0.06200  0.16800  Biso   1.000  C
  H105     1.0000 0.83980  0.02970  0.23430  Biso   1.000  H
  H106     1.0000 0.84560  0.07790  0.05850  Biso   1.000  H
  H107     1.0000 0.82810  0.11800  0.22730  Biso   1.000  H
  C66      1.0000 0.64120  0.94920  0.00200  Biso   1.000  C
  H108     1.0000 0.58110  0.93930  0.03540  Biso   1.000  H
  H109     1.0000 0.66120  0.98630  0.89970  Biso   1.000  H
  H110     1.0000 0.63700  0.89010  0.98050  Biso   1.000  H
  O23      1.0000 0.55350  0.30280  0.54690  Biso   1.000  O
  C67      1.0000 0.45190  0.36800  0.54230  Biso   1.000  C
  O24      1.0000 0.55400  0.38450  0.76240  Biso   1.000  O
  C68      1.0000 0.52250  0.35120  0.61470  Biso   1.000  C
  C69      1.0000 0.40410  0.32090  0.38790  Biso   1.000  C
  H111     1.0000 0.41640  0.27690  0.33940  Biso   1.000  H
  C70      1.0000 0.32300  0.22830  0.06700  Biso   1.000  C
  H112     1.0000 0.31760  0.18250  0.14800  Biso   1.000  H
  H113     1.0000 0.28690  0.19790  0.96690  Biso   1.000  H
  H114     1.0000 0.38750  0.26690  0.03470  Biso   1.000  H
  C71      1.0000 0.24630  0.18430  0.16800  Biso   1.000  C
  H115     1.0000 0.18990  0.16020  0.23430  Biso   1.000  H
  H116     1.0000 0.23230  0.15440  0.05850  Biso   1.000  H
  H117     1.0000 0.28990  0.17190  0.22730  Biso   1.000  H
  C72      1.0000 0.30800  0.35880  0.00200  Biso   1.000  C
  H118     1.0000 0.35820  0.41890  0.03540  Biso   1.000  H
  H119     1.0000 0.32510  0.33880  0.89970  Biso   1.000  H
  H120     1.0000 0.25310  0.36300  0.98050  Biso   1.000  H
  Pr1      1.0000 0.33333  0.66667  0.80790  Biso   1.000  Pr
  Pr2      1.0000 0.66667  0.33333  0.30790  Biso   1.000  Pr
  Pr3      1.0000 0.33333  0.66667  0.30790  Biso   1.000  Pr
  Pr4      1.0000 0.66667  0.33333  0.80790  Biso   1.000  Pr
  C73      1.0000 0.66020  0.00000  0.30960  Biso   1.000  C
  C74      1.0000 0.56680  0.00000  0.60820  Biso   1.000  C
  H121     1.0000 0.53310  0.00000  0.70350  Biso   1.000  H
  C75      1.0000 0.71170  0.00000  0.14530  Biso   1.000  C
  C76      1.0000 0.00000  0.66020  0.30960  Biso   1.000  C
  C77      1.0000 0.00000  0.56680  0.60820  Biso   1.000  C
  H122     1.0000 0.00000  0.53310  0.70350  Biso   1.000  H
  C78      1.0000 0.00000  0.71170  0.14530  Biso   1.000  C
  C79      1.0000 0.33980  0.33980  0.30960  Biso   1.000  C
  C80      1.0000 0.43320  0.43320  0.60820  Biso   1.000  C
  H123     1.0000 0.46690  0.46690  0.70350  Biso   1.000  H
  C81      1.0000 0.28830  0.28830  0.14530  Biso   1.000  C
  C82      1.0000 0.33980  0.00000  0.80960  Biso   1.000  C
  C83      1.0000 0.43320  0.00000  0.10820  Biso   1.000  C
  H124     1.0000 0.46690  0.00000  0.20350  Biso   1.000  H
  C84      1.0000 0.28830  0.00000  0.64530  Biso   1.000  C
  C85      1.0000 0.00000  0.33980  0.80960  Biso   1.000  C
  C86      1.0000 0.00000  0.43320  0.10820  Biso   1.000  C
  H125     1.0000 0.00000  0.46690  0.20350  Biso   1.000  H
  C87      1.0000 0.00000  0.28830  0.64530  Biso   1.000  C
  C88      1.0000 0.66020  0.66020  0.80960  Biso   1.000  C
  C89      1.0000 0.56680  0.56680  0.10820  Biso   1.000  C
  H126     1.0000 0.53310  0.53310  0.20350  Biso   1.000  H
  C90      1.0000 0.71170  0.71170  0.64530  Biso   1.000  C
