data_image0
_cell_length_a       16.4196
_cell_length_b       16.4196
_cell_length_c       7.6696
_cell_angle_alpha    90
_cell_angle_beta     90
_cell_angle_gamma    120

_symmetry_space_group_name_H-M    "P 1"
_symmetry_int_tables_number       1

loop_
  _symmetry_equiv_pos_as_xyz
  'x, y, z'

loop_
  _atom_site_label
  _atom_site_occupancy
  _atom_site_fract_x
  _atom_site_fract_y
  _atom_site_fract_z
  _atom_site_thermal_displace_type
  _atom_site_B_iso_or_equiv
  _atom_site_type_symbol
  O1       1.0000 0.44290  0.82800  0.76210  Biso   1.000  O
  O2       1.0000 0.44620  0.74690  0.56000  Biso   1.000  O
  C1       1.0000 0.47730  0.82670  0.60950  Biso   1.000  C
  C2       1.0000 0.54860  0.91600  0.54400  Biso   1.000  C
  C3       1.0000 0.59610  0.91690  0.38730  Biso   1.000  C
  H1       1.0000 0.58270  0.85920  0.34050  Biso   1.000  H
  C4       1.0000 0.77800  0.09900  0.05800  Biso   1.000  C
  H2       1.0000 0.74210  0.12840  0.02870  Biso   1.000  H
  H3       1.0000 0.80940  0.09440  0.95640  Biso   1.000  H
  H4       1.0000 0.82360  0.13530  0.14570  Biso   1.000  H
  C5       1.0000 0.63400  0.94300  0.99400  Biso   1.000  C
  H5       1.0000 0.64050  0.89070  0.95290  Biso   1.000  H
  H6       1.0000 0.64020  0.98240  0.89710  Biso   1.000  H
  H7       1.0000 0.57360  0.91910  0.04680  Biso   1.000  H
  C6       1.0000 0.76700  0.94800  0.16400  Biso   1.000  C
  H8       1.0000 0.72670  0.88870  0.21950  Biso   1.000  H
  H9       1.0000 0.81970  0.98570  0.23900  Biso   1.000  H
  H10      1.0000 0.78970  0.93730  0.05570  Biso   1.000  H
  O3       1.0000 0.17200  0.61490  0.76210  Biso   1.000  O
  O4       1.0000 0.25310  0.69930  0.56000  Biso   1.000  O
  C7       1.0000 0.17330  0.65060  0.60950  Biso   1.000  C
  C8       1.0000 0.08400  0.63260  0.54400  Biso   1.000  C
  C9       1.0000 0.08310  0.67920  0.38730  Biso   1.000  C
  H11      1.0000 0.14080  0.72350  0.34050  Biso   1.000  H
  C10      1.0000 0.90100  0.67900  0.05800  Biso   1.000  C
  H12      1.0000 0.87160  0.61370  0.02870  Biso   1.000  H
  H13      1.0000 0.90560  0.71500  0.95640  Biso   1.000  H
  H14      1.0000 0.86470  0.68830  0.14570  Biso   1.000  H
  C11      1.0000 0.05700  0.69100  0.99400  Biso   1.000  C
  H15      1.0000 0.10930  0.74980  0.95290  Biso   1.000  H
  H16      1.0000 0.01760  0.65780  0.89710  Biso   1.000  H
  H17      1.0000 0.08090  0.65450  0.04680  Biso   1.000  H
  C12      1.0000 0.05200  0.81900  0.16400  Biso   1.000  C
  H18      1.0000 0.11130  0.83800  0.21950  Biso   1.000  H
  H19      1.0000 0.01430  0.83400  0.23900  Biso   1.000  H
  H20      1.0000 0.06270  0.85240  0.05570  Biso   1.000  H
  O5       1.0000 0.38510  0.55710  0.76210  Biso   1.000  O
  O6       1.0000 0.30070  0.55380  0.56000  Biso   1.000  O
  C13      1.0000 0.34940  0.52270  0.60950  Biso   1.000  C
  C14      1.0000 0.36740  0.45140  0.54400  Biso   1.000  C
  C15      1.0000 0.32080  0.40390  0.38730  Biso   1.000  C
  H21      1.0000 0.27650  0.41730  0.34050  Biso   1.000  H
  C16      1.0000 0.32100  0.22200  0.05800  Biso   1.000  C
  H22      1.0000 0.38630  0.25790  0.02870  Biso   1.000  H
  H23      1.0000 0.28500  0.19060  0.95640  Biso   1.000  H
  H24      1.0000 0.31170  0.17640  0.14570  Biso   1.000  H
  C17      1.0000 0.30900  0.36600  0.99400  Biso   1.000  C
  H25      1.0000 0.25020  0.35950  0.95290  Biso   1.000  H
  H26      1.0000 0.34220  0.35980  0.89710  Biso   1.000  H
  H27      1.0000 0.34550  0.42640  0.04680  Biso   1.000  H
  C18      1.0000 0.18100  0.23300  0.16400  Biso   1.000  C
  H28      1.0000 0.16200  0.27330  0.21950  Biso   1.000  H
  H29      1.0000 0.16600  0.18030  0.23900  Biso   1.000  H
  H30      1.0000 0.14760  0.21030  0.05570  Biso   1.000  H
  O7       1.0000 0.55710  0.17200  0.26210  Biso   1.000  O
  O8       1.0000 0.55380  0.25310  0.06000  Biso   1.000  O
  C19      1.0000 0.52270  0.17330  0.10950  Biso   1.000  C
  C20      1.0000 0.45140  0.08400  0.04400  Biso   1.000  C
  C21      1.0000 0.40390  0.08310  0.88730  Biso   1.000  C
  H31      1.0000 0.41730  0.14080  0.84050  Biso   1.000  H
  C22      1.0000 0.22200  0.90100  0.55800  Biso   1.000  C
  H32      1.0000 0.25790  0.87160  0.52870  Biso   1.000  H
  H33      1.0000 0.19060  0.90560  0.45640  Biso   1.000  H
  H34      1.0000 0.17640  0.86470  0.64570  Biso   1.000  H
  C23      1.0000 0.36600  0.05700  0.49400  Biso   1.000  C
  H35      1.0000 0.35950  0.10930  0.45290  Biso   1.000  H
  H36      1.0000 0.35980  0.01760  0.39710  Biso   1.000  H
  H37      1.0000 0.42640  0.08090  0.54680  Biso   1.000  H
  C24      1.0000 0.23300  0.05200  0.66400  Biso   1.000  C
  H38      1.0000 0.27330  0.11130  0.71950  Biso   1.000  H
  H39      1.0000 0.18030  0.01430  0.73900  Biso   1.000  H
  H40      1.0000 0.21030  0.06270  0.55570  Biso   1.000  H
  O9       1.0000 0.82800  0.38510  0.26210  Biso   1.000  O
  O10      1.0000 0.74690  0.30070  0.06000  Biso   1.000  O
  C25      1.0000 0.82670  0.34940  0.10950  Biso   1.000  C
  C26      1.0000 0.91600  0.36740  0.04400  Biso   1.000  C
  C27      1.0000 0.91690  0.32080  0.88730  Biso   1.000  C
  H41      1.0000 0.85920  0.27650  0.84050  Biso   1.000  H
  C28      1.0000 0.09900  0.32100  0.55800  Biso   1.000  C
  H42      1.0000 0.12840  0.38630  0.52870  Biso   1.000  H
  H43      1.0000 0.09440  0.28500  0.45640  Biso   1.000  H
  H44      1.0000 0.13530  0.31170  0.64570  Biso   1.000  H
  C29      1.0000 0.94300  0.30900  0.49400  Biso   1.000  C
  H45      1.0000 0.89070  0.25020  0.45290  Biso   1.000  H
  H46      1.0000 0.98240  0.34220  0.39710  Biso   1.000  H
  H47      1.0000 0.91910  0.34550  0.54680  Biso   1.000  H
  C30      1.0000 0.94800  0.18100  0.66400  Biso   1.000  C
  H48      1.0000 0.88870  0.16200  0.71950  Biso   1.000  H
  H49      1.0000 0.98570  0.16600  0.73900  Biso   1.000  H
  H50      1.0000 0.93730  0.14760  0.55570  Biso   1.000  H
  O11      1.0000 0.61490  0.44290  0.26210  Biso   1.000  O
  O12      1.0000 0.69930  0.44620  0.06000  Biso   1.000  O
  C31      1.0000 0.65060  0.47730  0.10950  Biso   1.000  C
  C32      1.0000 0.63260  0.54860  0.04400  Biso   1.000  C
  C33      1.0000 0.67920  0.59610  0.88730  Biso   1.000  C
  H51      1.0000 0.72350  0.58270  0.84050  Biso   1.000  H
  C34      1.0000 0.67900  0.77800  0.55800  Biso   1.000  C
  H52      1.0000 0.61370  0.74210  0.52870  Biso   1.000  H
  H53      1.0000 0.71500  0.80940  0.45640  Biso   1.000  H
  H54      1.0000 0.68830  0.82360  0.64570  Biso   1.000  H
  C35      1.0000 0.69100  0.63400  0.49400  Biso   1.000  C
  H55      1.0000 0.74980  0.64050  0.45290  Biso   1.000  H
  H56      1.0000 0.65780  0.64020  0.39710  Biso   1.000  H
  H57      1.0000 0.65450  0.57360  0.54680  Biso   1.000  H
  C36      1.0000 0.81900  0.76700  0.66400  Biso   1.000  C
  H58      1.0000 0.83800  0.72670  0.71950  Biso   1.000  H
  H59      1.0000 0.83400  0.81970  0.73900  Biso   1.000  H
  H60      1.0000 0.85240  0.78970  0.55570  Biso   1.000  H
  O13      1.0000 0.17200  0.55710  0.26210  Biso   1.000  O
  O14      1.0000 0.25310  0.55380  0.06000  Biso   1.000  O
  C37      1.0000 0.17330  0.52270  0.10950  Biso   1.000  C
  C38      1.0000 0.08400  0.45140  0.04400  Biso   1.000  C
  C39      1.0000 0.08310  0.40390  0.88730  Biso   1.000  C
  H61      1.0000 0.14080  0.41730  0.84050  Biso   1.000  H
  C40      1.0000 0.90100  0.22200  0.55800  Biso   1.000  C
  H62      1.0000 0.87160  0.25790  0.52870  Biso   1.000  H
  H63      1.0000 0.90560  0.19060  0.45640  Biso   1.000  H
  H64      1.0000 0.86470  0.17640  0.64570  Biso   1.000  H
  C41      1.0000 0.05700  0.36600  0.49400  Biso   1.000  C
  H65      1.0000 0.10930  0.35950  0.45290  Biso   1.000  H
  H66      1.0000 0.01760  0.35980  0.39710  Biso   1.000  H
  H67      1.0000 0.08090  0.42640  0.54680  Biso   1.000  H
  C42      1.0000 0.05200  0.23300  0.66400  Biso   1.000  C
  H68      1.0000 0.11130  0.27330  0.71950  Biso   1.000  H
  H69      1.0000 0.01430  0.18030  0.73900  Biso   1.000  H
  H70      1.0000 0.06270  0.21030  0.55570  Biso   1.000  H
  O15      1.0000 0.38510  0.82800  0.26210  Biso   1.000  O
  O16      1.0000 0.30070  0.74690  0.06000  Biso   1.000  O
  C43      1.0000 0.34940  0.82670  0.10950  Biso   1.000  C
  C44      1.0000 0.36740  0.91600  0.04400  Biso   1.000  C
  C45      1.0000 0.32080  0.91690  0.88730  Biso   1.000  C
  H71      1.0000 0.27650  0.85920  0.84050  Biso   1.000  H
  C46      1.0000 0.32100  0.09900  0.55800  Biso   1.000  C
  H72      1.0000 0.38630  0.12840  0.52870  Biso   1.000  H
  H73      1.0000 0.28500  0.09440  0.45640  Biso   1.000  H
  H74      1.0000 0.31170  0.13530  0.64570  Biso   1.000  H
  C47      1.0000 0.30900  0.94300  0.49400  Biso   1.000  C
  H75      1.0000 0.25020  0.89070  0.45290  Biso   1.000  H
  H76      1.0000 0.34220  0.98240  0.39710  Biso   1.000  H
  H77      1.0000 0.34550  0.91910  0.54680  Biso   1.000  H
  C48      1.0000 0.18100  0.94800  0.66400  Biso   1.000  C
  H78      1.0000 0.16200  0.88870  0.71950  Biso   1.000  H
  H79      1.0000 0.16600  0.98570  0.73900  Biso   1.000  H
  H80      1.0000 0.14760  0.93730  0.55570  Biso   1.000  H
  O17      1.0000 0.44290  0.61490  0.26210  Biso   1.000  O
  O18      1.0000 0.44620  0.69930  0.06000  Biso   1.000  O
  C49      1.0000 0.47730  0.65060  0.10950  Biso   1.000  C
  C50      1.0000 0.54860  0.63260  0.04400  Biso   1.000  C
  C51      1.0000 0.59610  0.67920  0.88730  Biso   1.000  C
  H81      1.0000 0.58270  0.72350  0.84050  Biso   1.000  H
  C52      1.0000 0.77800  0.67900  0.55800  Biso   1.000  C
  H82      1.0000 0.74210  0.61370  0.52870  Biso   1.000  H
  H83      1.0000 0.80940  0.71500  0.45640  Biso   1.000  H
  H84      1.0000 0.82360  0.68830  0.64570  Biso   1.000  H
  C53      1.0000 0.63400  0.69100  0.49400  Biso   1.000  C
  H85      1.0000 0.64050  0.74980  0.45290  Biso   1.000  H
  H86      1.0000 0.64020  0.65780  0.39710  Biso   1.000  H
  H87      1.0000 0.57360  0.65450  0.54680  Biso   1.000  H
  C54      1.0000 0.76700  0.81900  0.66400  Biso   1.000  C
  H88      1.0000 0.72670  0.83800  0.71950  Biso   1.000  H
  H89      1.0000 0.81970  0.83400  0.73900  Biso   1.000  H
  H90      1.0000 0.78970  0.85240  0.55570  Biso   1.000  H
  O19      1.0000 0.82800  0.44290  0.76210  Biso   1.000  O
  O20      1.0000 0.74690  0.44620  0.56000  Biso   1.000  O
  C55      1.0000 0.82670  0.47730  0.60950  Biso   1.000  C
  C56      1.0000 0.91600  0.54860  0.54400  Biso   1.000  C
  C57      1.0000 0.91690  0.59610  0.38730  Biso   1.000  C
  H91      1.0000 0.85920  0.58270  0.34050  Biso   1.000  H
  C58      1.0000 0.09900  0.77800  0.05800  Biso   1.000  C
  H92      1.0000 0.12840  0.74210  0.02870  Biso   1.000  H
  H93      1.0000 0.09440  0.80940  0.95640  Biso   1.000  H
  H94      1.0000 0.13530  0.82360  0.14570  Biso   1.000  H
  C59      1.0000 0.94300  0.63400  0.99400  Biso   1.000  C
  H95      1.0000 0.89070  0.64050  0.95290  Biso   1.000  H
  H96      1.0000 0.98240  0.64020  0.89710  Biso   1.000  H
  H97      1.0000 0.91910  0.57360  0.04680  Biso   1.000  H
  C60      1.0000 0.94800  0.76700  0.16400  Biso   1.000  C
  H98      1.0000 0.88870  0.72670  0.21950  Biso   1.000  H
  H99      1.0000 0.98570  0.81970  0.23900  Biso   1.000  H
  H100     1.0000 0.93730  0.78970  0.05570  Biso   1.000  H
  O21      1.0000 0.61490  0.17200  0.76210  Biso   1.000  O
  O22      1.0000 0.69930  0.25310  0.56000  Biso   1.000  O
  C61      1.0000 0.65060  0.17330  0.60950  Biso   1.000  C
  C62      1.0000 0.63260  0.08400  0.54400  Biso   1.000  C
  C63      1.0000 0.67920  0.08310  0.38730  Biso   1.000  C
  H101     1.0000 0.72350  0.14080  0.34050  Biso   1.000  H
  C64      1.0000 0.67900  0.90100  0.05800  Biso   1.000  C
  H102     1.0000 0.61370  0.87160  0.02870  Biso   1.000  H
  H103     1.0000 0.71500  0.90560  0.95640  Biso   1.000  H
  H104     1.0000 0.68830  0.86470  0.14570  Biso   1.000  H
  C65      1.0000 0.69100  0.05700  0.99400  Biso   1.000  C
  H105     1.0000 0.74980  0.10930  0.95290  Biso   1.000  H
  H106     1.0000 0.65780  0.01760  0.89710  Biso   1.000  H
  H107     1.0000 0.65450  0.08090  0.04680  Biso   1.000  H
  C66      1.0000 0.81900  0.05200  0.16400  Biso   1.000  C
  H108     1.0000 0.83800  0.11130  0.21950  Biso   1.000  H
  H109     1.0000 0.83400  0.01430  0.23900  Biso   1.000  H
  H110     1.0000 0.85240  0.06270  0.05570  Biso   1.000  H
  O23      1.0000 0.55710  0.38510  0.76210  Biso   1.000  O
  O24      1.0000 0.55380  0.30070  0.56000  Biso   1.000  O
  C67      1.0000 0.52270  0.34940  0.60950  Biso   1.000  C
  C68      1.0000 0.45140  0.36740  0.54400  Biso   1.000  C
  C69      1.0000 0.40390  0.32080  0.38730  Biso   1.000  C
  H111     1.0000 0.41730  0.27650  0.34050  Biso   1.000  H
  C70      1.0000 0.22200  0.32100  0.05800  Biso   1.000  C
  H112     1.0000 0.25790  0.38630  0.02870  Biso   1.000  H
  H113     1.0000 0.19060  0.28500  0.95640  Biso   1.000  H
  H114     1.0000 0.17640  0.31170  0.14570  Biso   1.000  H
  C71      1.0000 0.36600  0.30900  0.99400  Biso   1.000  C
  H115     1.0000 0.35950  0.25020  0.95290  Biso   1.000  H
  H116     1.0000 0.35980  0.34220  0.89710  Biso   1.000  H
  H117     1.0000 0.42640  0.34550  0.04680  Biso   1.000  H
  C72      1.0000 0.23300  0.18100  0.16400  Biso   1.000  C
  H118     1.0000 0.27330  0.16200  0.21950  Biso   1.000  H
  H119     1.0000 0.18030  0.16600  0.23900  Biso   1.000  H
  H120     1.0000 0.21030  0.14760  0.05570  Biso   1.000  H
  Eu1      1.0000 0.33333  0.66667  0.81080  Biso   1.000  Eu
  Eu2      1.0000 0.66667  0.33333  0.31080  Biso   1.000  Eu
  Eu3      1.0000 0.33333  0.66667  0.31080  Biso   1.000  Eu
  Eu4      1.0000 0.66667  0.33333  0.81080  Biso   1.000  Eu
  C73      1.0000 0.56650  0.00000  0.60100  Biso   1.000  C
  H121     1.0000 0.52830  0.00000  0.69040  Biso   1.000  H
  C74      1.0000 0.66270  0.00000  0.29700  Biso   1.000  C
  C75      1.0000 0.71190  0.00000  0.13000  Biso   1.000  C
  C76      1.0000 0.00000  0.56650  0.60100  Biso   1.000  C
  H122     1.0000 0.00000  0.52830  0.69040  Biso   1.000  H
  C77      1.0000 0.00000  0.66270  0.29700  Biso   1.000  C
  C78      1.0000 0.00000  0.71190  0.13000  Biso   1.000  C
  C79      1.0000 0.43350  0.43350  0.60100  Biso   1.000  C
  H123     1.0000 0.47170  0.47170  0.69040  Biso   1.000  H
  C80      1.0000 0.33730  0.33730  0.29700  Biso   1.000  C
  C81      1.0000 0.28810  0.28810  0.13000  Biso   1.000  C
  C82      1.0000 0.43350  0.00000  0.10100  Biso   1.000  C
  H124     1.0000 0.47170  0.00000  0.19040  Biso   1.000  H
  C83      1.0000 0.33730  0.00000  0.79700  Biso   1.000  C
  C84      1.0000 0.28810  0.00000  0.63000  Biso   1.000  C
  C85      1.0000 0.00000  0.43350  0.10100  Biso   1.000  C
  H125     1.0000 0.00000  0.47170  0.19040  Biso   1.000  H
  C86      1.0000 0.00000  0.33730  0.79700  Biso   1.000  C
  C87      1.0000 0.00000  0.28810  0.63000  Biso   1.000  C
  C88      1.0000 0.56650  0.56650  0.10100  Biso   1.000  C
  H126     1.0000 0.52830  0.52830  0.19040  Biso   1.000  H
  C89      1.0000 0.66270  0.66270  0.79700  Biso   1.000  C
  C90      1.0000 0.71190  0.71190  0.63000  Biso   1.000  C
