data_image0
_cell_length_a       6.8353
_cell_length_b       32.355
_cell_length_c       16.896
_cell_angle_alpha    90
_cell_angle_beta     90
_cell_angle_gamma    90

_symmetry_space_group_name_H-M    "P 1"
_symmetry_int_tables_number       1

loop_
  _symmetry_equiv_pos_as_xyz
  'x, y, z'

loop_
  _atom_site_label
  _atom_site_occupancy
  _atom_site_fract_x
  _atom_site_fract_y
  _atom_site_fract_z
  _atom_site_thermal_displace_type
  _atom_site_B_iso_or_equiv
  _atom_site_type_symbol
  C1       1.0000 0.83040  0.37720  0.26400  Biso   1.000  C
  C2       1.0000 0.82910  0.34750  0.20510  Biso   1.000  C
  O1       1.0000 0.16150  0.28965  0.08470  Biso   1.000  O
  C3       1.0000 0.39770  0.52410  0.54690  Biso   1.000  C
  H1       1.0000 0.71220  0.33770  0.18610  Biso   1.000  H
  H2       1.0000 0.71230  0.38670  0.28400  Biso   1.000  H
  H3       1.0000 0.31460  0.54070  0.57870  Biso   1.000  H
  C4       1.0000 0.33040  0.87720  0.26400  Biso   1.000  C
  C5       1.0000 0.32910  0.84750  0.20510  Biso   1.000  C
  O2       1.0000 0.66150  0.78965  0.08470  Biso   1.000  O
  C6       1.0000 0.89770  0.02410  0.54690  Biso   1.000  C
  H4       1.0000 0.21220  0.83770  0.18610  Biso   1.000  H
  H5       1.0000 0.21230  0.88670  0.28400  Biso   1.000  H
  H6       1.0000 0.81460  0.04070  0.57870  Biso   1.000  H
  C7       1.0000 0.16960  0.62280  0.26400  Biso   1.000  C
  C8       1.0000 0.17090  0.65250  0.20510  Biso   1.000  C
  O3       1.0000 0.83850  0.71035  0.08470  Biso   1.000  O
  C9       1.0000 0.60230  0.47590  0.54690  Biso   1.000  C
  H7       1.0000 0.28780  0.66230  0.18610  Biso   1.000  H
  H8       1.0000 0.28770  0.61330  0.28400  Biso   1.000  H
  H9       1.0000 0.68540  0.45930  0.57870  Biso   1.000  H
  C10      1.0000 0.66960  0.12280  0.26400  Biso   1.000  C
  C11      1.0000 0.67090  0.15250  0.20510  Biso   1.000  C
  O4       1.0000 0.33850  0.21035  0.08470  Biso   1.000  O
  C12      1.0000 0.10230  0.97590  0.54690  Biso   1.000  C
  H10      1.0000 0.78780  0.16230  0.18610  Biso   1.000  H
  H11      1.0000 0.78770  0.11330  0.28400  Biso   1.000  H
  H12      1.0000 0.18540  0.95930  0.57870  Biso   1.000  H
  C13      1.0000 0.16960  0.37720  0.73600  Biso   1.000  C
  C14      1.0000 0.17090  0.34750  0.79490  Biso   1.000  C
  O5       1.0000 0.83850  0.28965  0.91530  Biso   1.000  O
  C15      1.0000 0.60230  0.52410  0.45310  Biso   1.000  C
  H13      1.0000 0.28780  0.33770  0.81390  Biso   1.000  H
  H14      1.0000 0.28770  0.38670  0.71600  Biso   1.000  H
  H15      1.0000 0.68540  0.54070  0.42130  Biso   1.000  H
  C16      1.0000 0.66960  0.87720  0.73600  Biso   1.000  C
  C17      1.0000 0.67090  0.84750  0.79490  Biso   1.000  C
  O6       1.0000 0.33850  0.78965  0.91530  Biso   1.000  O
  C18      1.0000 0.10230  0.02410  0.45310  Biso   1.000  C
  H16      1.0000 0.78780  0.83770  0.81390  Biso   1.000  H
  H17      1.0000 0.78770  0.88670  0.71600  Biso   1.000  H
  H18      1.0000 0.18540  0.04070  0.42130  Biso   1.000  H
  C19      1.0000 0.83040  0.62280  0.73600  Biso   1.000  C
  C20      1.0000 0.82910  0.65250  0.79490  Biso   1.000  C
  O7       1.0000 0.16150  0.71035  0.91530  Biso   1.000  O
  C21      1.0000 0.39770  0.47590  0.45310  Biso   1.000  C
  H19      1.0000 0.71220  0.66230  0.81390  Biso   1.000  H
  H20      1.0000 0.71230  0.61330  0.71600  Biso   1.000  H
  H21      1.0000 0.31460  0.45930  0.42130  Biso   1.000  H
  C22      1.0000 0.33040  0.12280  0.73600  Biso   1.000  C
  C23      1.0000 0.32910  0.15250  0.79490  Biso   1.000  C
  O8       1.0000 0.66150  0.21035  0.91530  Biso   1.000  O
  C24      1.0000 0.89770  0.97590  0.45310  Biso   1.000  C
  H22      1.0000 0.21220  0.16230  0.81390  Biso   1.000  H
  H23      1.0000 0.21230  0.11330  0.71600  Biso   1.000  H
  H24      1.0000 0.81460  0.95930  0.42130  Biso   1.000  H
  C25      1.0000 0.16960  0.62280  0.73600  Biso   1.000  C
  C26      1.0000 0.17090  0.65250  0.79490  Biso   1.000  C
  O9       1.0000 0.83850  0.71035  0.91530  Biso   1.000  O
  C27      1.0000 0.60230  0.47590  0.45310  Biso   1.000  C
  H25      1.0000 0.28780  0.66230  0.81390  Biso   1.000  H
  H26      1.0000 0.28770  0.61330  0.71600  Biso   1.000  H
  H27      1.0000 0.68540  0.45930  0.42130  Biso   1.000  H
  C28      1.0000 0.66960  0.12280  0.73600  Biso   1.000  C
  C29      1.0000 0.67090  0.15250  0.79490  Biso   1.000  C
  O10      1.0000 0.33850  0.21035  0.91530  Biso   1.000  O
  C30      1.0000 0.10230  0.97590  0.45310  Biso   1.000  C
  H28      1.0000 0.78780  0.16230  0.81390  Biso   1.000  H
  H29      1.0000 0.78770  0.11330  0.71600  Biso   1.000  H
  H30      1.0000 0.18540  0.95930  0.42130  Biso   1.000  H
  C31      1.0000 0.83040  0.37720  0.73600  Biso   1.000  C
  C32      1.0000 0.82910  0.34750  0.79490  Biso   1.000  C
  O11      1.0000 0.16150  0.28965  0.91530  Biso   1.000  O
  C33      1.0000 0.39770  0.52410  0.45310  Biso   1.000  C
  H31      1.0000 0.71220  0.33770  0.81390  Biso   1.000  H
  H32      1.0000 0.71230  0.38670  0.71600  Biso   1.000  H
  H33      1.0000 0.31460  0.54070  0.42130  Biso   1.000  H
  C34      1.0000 0.33040  0.87720  0.73600  Biso   1.000  C
  C35      1.0000 0.32910  0.84750  0.79490  Biso   1.000  C
  O12      1.0000 0.66150  0.78965  0.91530  Biso   1.000  O
  C36      1.0000 0.89770  0.02410  0.45310  Biso   1.000  C
  H34      1.0000 0.21220  0.83770  0.81390  Biso   1.000  H
  H35      1.0000 0.21230  0.88670  0.71600  Biso   1.000  H
  H36      1.0000 0.81460  0.04070  0.42130  Biso   1.000  H
  C37      1.0000 0.83040  0.62280  0.26400  Biso   1.000  C
  C38      1.0000 0.82910  0.65250  0.20510  Biso   1.000  C
  O13      1.0000 0.16150  0.71035  0.08470  Biso   1.000  O
  C39      1.0000 0.39770  0.47590  0.54690  Biso   1.000  C
  H37      1.0000 0.71220  0.66230  0.18610  Biso   1.000  H
  H38      1.0000 0.71230  0.61330  0.28400  Biso   1.000  H
  H39      1.0000 0.31460  0.45930  0.57870  Biso   1.000  H
  C40      1.0000 0.33040  0.12280  0.26400  Biso   1.000  C
  C41      1.0000 0.32910  0.15250  0.20510  Biso   1.000  C
  O14      1.0000 0.66150  0.21035  0.08470  Biso   1.000  O
  C42      1.0000 0.89770  0.97590  0.54690  Biso   1.000  C
  H40      1.0000 0.21220  0.16230  0.18610  Biso   1.000  H
  H41      1.0000 0.21230  0.11330  0.28400  Biso   1.000  H
  H42      1.0000 0.81460  0.95930  0.57870  Biso   1.000  H
  C43      1.0000 0.16960  0.37720  0.26400  Biso   1.000  C
  C44      1.0000 0.17090  0.34750  0.20510  Biso   1.000  C
  O15      1.0000 0.83850  0.28965  0.08470  Biso   1.000  O
  C45      1.0000 0.60230  0.52410  0.54690  Biso   1.000  C
  H43      1.0000 0.28780  0.33770  0.18610  Biso   1.000  H
  H44      1.0000 0.28770  0.38670  0.28400  Biso   1.000  H
  H45      1.0000 0.68540  0.54070  0.57870  Biso   1.000  H
  C46      1.0000 0.66960  0.87720  0.26400  Biso   1.000  C
  C47      1.0000 0.67090  0.84750  0.20510  Biso   1.000  C
  O16      1.0000 0.33850  0.78965  0.08470  Biso   1.000  O
  C48      1.0000 0.10230  0.02410  0.54690  Biso   1.000  C
  H46      1.0000 0.78780  0.83770  0.18610  Biso   1.000  H
  H47      1.0000 0.78770  0.88670  0.28400  Biso   1.000  H
  H48      1.0000 0.18540  0.04070  0.57870  Biso   1.000  H
  Fe1      1.0000 0.00000  0.50000  0.50000  Biso   1.000  Fe
  Fe2      1.0000 0.50000  0.00000  0.50000  Biso   1.000  Fe
  N1       1.0000 0.00000  0.43840  0.50000  Biso   1.000  N
  N2       1.0000 0.50000  0.93840  0.50000  Biso   1.000  N
  N3       1.0000 0.00000  0.56160  0.50000  Biso   1.000  N
  N4       1.0000 0.50000  0.06160  0.50000  Biso   1.000  N
  C49      1.0000 0.00000  0.41250  0.43560  Biso   1.000  C
  C50      1.0000 0.00000  0.42550  0.35630  Biso   1.000  C
  C51      1.0000 0.00000  0.46590  0.33260  Biso   1.000  C
  C52      1.0000 0.00000  0.47940  0.25120  Biso   1.000  C
  C53      1.0000 0.00000  0.39220  0.29400  Biso   1.000  C
  C54      1.0000 0.00000  0.33270  0.17440  Biso   1.000  C
  C55      1.0000 0.00000  0.30100  0.10970  Biso   1.000  C
  C56      1.0000 0.00000  0.37010  0.46040  Biso   1.000  C
  H49      1.0000 0.00000  0.46210  0.20670  Biso   1.000  H
  H50      1.0000 0.00000  0.34620  0.42710  Biso   1.000  H
  C57      1.0000 0.50000  0.91250  0.43560  Biso   1.000  C
  C58      1.0000 0.50000  0.92550  0.35630  Biso   1.000  C
  C59      1.0000 0.50000  0.96590  0.33260  Biso   1.000  C
  C60      1.0000 0.50000  0.97940  0.25120  Biso   1.000  C
  C61      1.0000 0.50000  0.89220  0.29400  Biso   1.000  C
  C62      1.0000 0.50000  0.83270  0.17440  Biso   1.000  C
  C63      1.0000 0.50000  0.80100  0.10970  Biso   1.000  C
  C64      1.0000 0.50000  0.87010  0.46040  Biso   1.000  C
  H51      1.0000 0.50000  0.96210  0.20670  Biso   1.000  H
  H52      1.0000 0.50000  0.84620  0.42710  Biso   1.000  H
  C65      1.0000 0.00000  0.58750  0.43560  Biso   1.000  C
  C66      1.0000 0.00000  0.57450  0.35630  Biso   1.000  C
  C67      1.0000 0.00000  0.53410  0.33260  Biso   1.000  C
  C68      1.0000 0.00000  0.52060  0.25120  Biso   1.000  C
  C69      1.0000 0.00000  0.60780  0.29400  Biso   1.000  C
  C70      1.0000 0.00000  0.66730  0.17440  Biso   1.000  C
  C71      1.0000 0.00000  0.69900  0.10970  Biso   1.000  C
  C72      1.0000 0.00000  0.62990  0.46040  Biso   1.000  C
  H53      1.0000 0.00000  0.53790  0.20670  Biso   1.000  H
  H54      1.0000 0.00000  0.65380  0.42710  Biso   1.000  H
  C73      1.0000 0.50000  0.08750  0.43560  Biso   1.000  C
  C74      1.0000 0.50000  0.07450  0.35630  Biso   1.000  C
  C75      1.0000 0.50000  0.03410  0.33260  Biso   1.000  C
  C76      1.0000 0.50000  0.02060  0.25120  Biso   1.000  C
  C77      1.0000 0.50000  0.10780  0.29400  Biso   1.000  C
  C78      1.0000 0.50000  0.16730  0.17440  Biso   1.000  C
  C79      1.0000 0.50000  0.19900  0.10970  Biso   1.000  C
  C80      1.0000 0.50000  0.12990  0.46040  Biso   1.000  C
  H55      1.0000 0.50000  0.03790  0.20670  Biso   1.000  H
  H56      1.0000 0.50000  0.15380  0.42710  Biso   1.000  H
  C81      1.0000 0.00000  0.41250  0.56440  Biso   1.000  C
  C82      1.0000 0.00000  0.42550  0.64370  Biso   1.000  C
  C83      1.0000 0.00000  0.46590  0.66740  Biso   1.000  C
  C84      1.0000 0.00000  0.47940  0.74880  Biso   1.000  C
  C85      1.0000 0.00000  0.39220  0.70600  Biso   1.000  C
  C86      1.0000 0.00000  0.33270  0.82560  Biso   1.000  C
  C87      1.0000 0.00000  0.30100  0.89030  Biso   1.000  C
  C88      1.0000 0.00000  0.37010  0.53960  Biso   1.000  C
  H57      1.0000 0.00000  0.46210  0.79330  Biso   1.000  H
  H58      1.0000 0.00000  0.34620  0.57290  Biso   1.000  H
  C89      1.0000 0.50000  0.91250  0.56440  Biso   1.000  C
  C90      1.0000 0.50000  0.92550  0.64370  Biso   1.000  C
  C91      1.0000 0.50000  0.96590  0.66740  Biso   1.000  C
  C92      1.0000 0.50000  0.97940  0.74880  Biso   1.000  C
  C93      1.0000 0.50000  0.89220  0.70600  Biso   1.000  C
  C94      1.0000 0.50000  0.83270  0.82560  Biso   1.000  C
  C95      1.0000 0.50000  0.80100  0.89030  Biso   1.000  C
  C96      1.0000 0.50000  0.87010  0.53960  Biso   1.000  C
  H59      1.0000 0.50000  0.96210  0.79330  Biso   1.000  H
  H60      1.0000 0.50000  0.84620  0.57290  Biso   1.000  H
  C97      1.0000 0.00000  0.58750  0.56440  Biso   1.000  C
  C98      1.0000 0.00000  0.57450  0.64370  Biso   1.000  C
  C99      1.0000 0.00000  0.53410  0.66740  Biso   1.000  C
  C100     1.0000 0.00000  0.52060  0.74880  Biso   1.000  C
  C101     1.0000 0.00000  0.60780  0.70600  Biso   1.000  C
  C102     1.0000 0.00000  0.66730  0.82560  Biso   1.000  C
  C103     1.0000 0.00000  0.69900  0.89030  Biso   1.000  C
  C104     1.0000 0.00000  0.62990  0.53960  Biso   1.000  C
  H61      1.0000 0.00000  0.53790  0.79330  Biso   1.000  H
  H62      1.0000 0.00000  0.65380  0.57290  Biso   1.000  H
  C105     1.0000 0.50000  0.08750  0.56440  Biso   1.000  C
  C106     1.0000 0.50000  0.07450  0.64370  Biso   1.000  C
  C107     1.0000 0.50000  0.03410  0.66740  Biso   1.000  C
  C108     1.0000 0.50000  0.02060  0.74880  Biso   1.000  C
  C109     1.0000 0.50000  0.10780  0.70600  Biso   1.000  C
  C110     1.0000 0.50000  0.16730  0.82560  Biso   1.000  C
  C111     1.0000 0.50000  0.19900  0.89030  Biso   1.000  C
  C112     1.0000 0.50000  0.12990  0.53960  Biso   1.000  C
  H63      1.0000 0.50000  0.03790  0.79330  Biso   1.000  H
  H64      1.0000 0.50000  0.15380  0.57290  Biso   1.000  H
  N5       1.0000 0.00000  0.50000  0.38170  Biso   1.000  N
  N6       1.0000 0.50000  0.00000  0.38170  Biso   1.000  N
  N7       1.0000 0.00000  0.50000  0.61830  Biso   1.000  N
  N8       1.0000 0.50000  0.00000  0.61830  Biso   1.000  N
  Fe3      1.0000 0.25000  0.25000  0.00000  Biso   1.000  Fe
  Fe4      1.0000 0.75000  0.75000  0.00000  Biso   1.000  Fe
  Fe5      1.0000 0.75000  0.25000  0.00000  Biso   1.000  Fe
  Fe6      1.0000 0.25000  0.75000  0.00000  Biso   1.000  Fe
  O17      1.0000 0.50000  0.27780  0.00000  Biso   1.000  O
  H65      1.0000 0.50000  0.30740  0.00000  Biso   1.000  H
  O18      1.0000 0.00000  0.77780  0.00000  Biso   1.000  O
  H66      1.0000 0.00000  0.80740  0.00000  Biso   1.000  H
  O19      1.0000 0.50000  0.72220  0.00000  Biso   1.000  O
  H67      1.0000 0.50000  0.69260  0.00000  Biso   1.000  H
  O20      1.0000 0.00000  0.22220  0.00000  Biso   1.000  O
  H68      1.0000 0.00000  0.19260  0.00000  Biso   1.000  H
  N9       1.0000 0.28970  0.50000  0.50000  Biso   1.000  N
  N10      1.0000 0.78970  0.00000  0.50000  Biso   1.000  N
  N11      1.0000 0.71030  0.50000  0.50000  Biso   1.000  N
  N12      1.0000 0.21030  0.00000  0.50000  Biso   1.000  N
