data_image0
_cell_length_a       14.7359
_cell_length_b       24.2569
_cell_length_c       18.6902
_cell_angle_alpha    90
_cell_angle_beta     104.883
_cell_angle_gamma    90

_symmetry_space_group_name_H-M    "P 1"
_symmetry_int_tables_number       1

loop_
  _symmetry_equiv_pos_as_xyz
  'x, y, z'

loop_
  _atom_site_label
  _atom_site_occupancy
  _atom_site_fract_x
  _atom_site_fract_y
  _atom_site_fract_z
  _atom_site_thermal_displace_type
  _atom_site_B_iso_or_equiv
  _atom_site_type_symbol
  In1      1.0000 0.11569  0.46685  0.68894  Biso   1.000  In
  In2      1.0000 0.32801  0.47062  0.83286  Biso   1.000  In
  O1       1.0000 0.42490  0.44060  0.92640  Biso   1.000  O
  H1       1.0000 0.43430  0.40300  0.93500  Biso   1.000  H
  O2       1.0000 0.23920  0.50835  0.74060  Biso   1.000  O
  H2       1.0000 0.25410  0.54220  0.72320  Biso   1.000  H
  O3       1.0000 0.12560  0.48541  0.58120  Biso   1.000  O
  H3       1.0000 0.18350  0.48710  0.57000  Biso   1.000  H
  O4       1.0000 0.28970  0.54143  0.88950  Biso   1.000  O
  O5       1.0000 0.37070  0.53856  0.00950  Biso   1.000  O
  O6       1.0000 0.00710  0.91900  0.85700  Biso   1.000  O
  O7       1.0000 0.04440  0.91728  0.98150  Biso   1.000  O
  O8       1.0000 0.77910  0.57468  0.12660  Biso   1.000  O
  O9       1.0000 0.91400  0.55090  0.20670  Biso   1.000  O
  O10      1.0000 0.93150  0.53884  0.57730  Biso   1.000  O
  O11      1.0000 0.03620  0.54059  0.68780  Biso   1.000  O
  O12      1.0000 0.50390  0.55295  0.91110  Biso   1.000  O
  O13      1.0000 0.44440  0.51077  0.80240  Biso   1.000  O
  O14      1.0000 0.66290  0.89689  0.72860  Biso   1.000  O
  O15      1.0000 0.80780  0.89132  0.80620  Biso   1.000  O
  C1       1.0000 0.30280  0.55450  0.95670  Biso   1.000  C
  C2       1.0000 0.23300  0.59210  0.97720  Biso   1.000  C
  H4       1.0000 0.24020  0.59980  0.02700  Biso   1.000  H
  C3       1.0000 0.16270  0.61450  0.92920  Biso   1.000  C
  H5       1.0000 0.15630  0.60780  0.87920  Biso   1.000  H
  C4       1.0000 0.09170  0.65060  0.95080  Biso   1.000  C
  C5       1.0000 0.09750  0.70800  0.94780  Biso   1.000  C
  C6       1.0000 0.03130  0.74060  0.97180  Biso   1.000  C
  C7       1.0000 0.96230  0.71500  0.00060  Biso   1.000  C
  C8       1.0000 0.95720  0.65720  0.00370  Biso   1.000  C
  C9       1.0000 0.02020  0.62490  0.97670  Biso   1.000  C
  C10      1.0000 0.17670  0.73380  0.92130  Biso   1.000  C
  H6       1.0000 0.17150  0.77320  0.92220  Biso   1.000  H
  H7       1.0000 0.23580  0.72260  0.95320  Biso   1.000  H
  H8       1.0000 0.17290  0.72180  0.87160  Biso   1.000  H
  C11      1.0000 0.89280  0.75000  0.02740  Biso   1.000  C
  H9       1.0000 0.90580  0.78830  0.02150  Biso   1.000  H
  H10      1.0000 0.83030  0.74160  0.99900  Biso   1.000  H
  H11      1.0000 0.89830  0.74240  0.07870  Biso   1.000  H
  C12      1.0000 0.01100  0.56310  0.97360  Biso   1.000  C
  H12      1.0000 0.05940  0.54770  0.95380  Biso   1.000  H
  H13      1.0000 0.01690  0.54900  0.02260  Biso   1.000  H
  H14      1.0000 0.95060  0.55320  0.94240  Biso   1.000  H
  C13      1.0000 0.03390  0.80170  0.97140  Biso   1.000  C
  H15      1.0000 0.03020  0.81940  0.01470  Biso   1.000  H
  C14      1.0000 0.04100  0.83370  0.91550  Biso   1.000  C
  H16      1.0000 0.05240  0.81780  0.87340  Biso   1.000  H
  C15      1.0000 0.03110  0.89430  0.91920  Biso   1.000  C
  C16      1.0000 0.89280  0.63040  0.04250  Biso   1.000  C
  H17      1.0000 0.82830  0.63370  0.02280  Biso   1.000  H
  C17      1.0000 0.92460  0.60180  0.10430  Biso   1.000  C
  H18      1.0000 0.98940  0.59880  0.12220  Biso   1.000  H
  C18      1.0000 0.86520  0.57390  0.14800  Biso   1.000  C
  C19      1.0000 0.95960  0.55310  0.64400  Biso   1.000  C
  C20      1.0000 0.89550  0.58790  0.67460  Biso   1.000  C
  H19      1.0000 0.84130  0.60170  0.64240  Biso   1.000  H
  C21      1.0000 0.91270  0.59990  0.74540  Biso   1.000  C
  H20      1.0000 0.96930  0.58790  0.77630  Biso   1.000  H
  C22      1.0000 0.84760  0.63130  0.77940  Biso   1.000  C
  C23      1.0000 0.78140  0.60130  0.80560  Biso   1.000  C
  C24      1.0000 0.71620  0.63070  0.83370  Biso   1.000  C
  C25      1.0000 0.71920  0.68850  0.83890  Biso   1.000  C
  C26      1.0000 0.78590  0.71740  0.81270  Biso   1.000  C
  C27      1.0000 0.85130  0.68850  0.78340  Biso   1.000  C
  C28      1.0000 0.78220  0.53920  0.80380  Biso   1.000  C
  H21      1.0000 0.73270  0.52520  0.82350  Biso   1.000  H
  H22      1.0000 0.77280  0.52690  0.75360  Biso   1.000  H
  H23      1.0000 0.84150  0.52590  0.83300  Biso   1.000  H
  C29      1.0000 0.64990  0.71730  0.87310  Biso   1.000  C
  H24      1.0000 0.61020  0.69040  0.88760  Biso   1.000  H
  H25      1.0000 0.68320  0.73770  0.91580  Biso   1.000  H
  H26      1.0000 0.61210  0.74210  0.83760  Biso   1.000  H
  C30      1.0000 0.92450  0.71990  0.75580  Biso   1.000  C
  H27      1.0000 0.91710  0.75870  0.76270  Biso   1.000  H
  H28      1.0000 0.98610  0.70860  0.78310  Biso   1.000  H
  H29      1.0000 0.91660  0.71230  0.70410  Biso   1.000  H
  C31      1.0000 0.64090  0.60100  0.85790  Biso   1.000  C
  H30      1.0000 0.64080  0.60370  0.90750  Biso   1.000  H
  C32      1.0000 0.57320  0.57050  0.81380  Biso   1.000  C
  H31      1.0000 0.57060  0.56700  0.76380  Biso   1.000  H
  C33      1.0000 0.50340  0.54270  0.84460  Biso   1.000  C
  C34      1.0000 0.78920  0.77840  0.81120  Biso   1.000  C
  H32      1.0000 0.84510  0.79540  0.83550  Biso   1.000  H
  C35      1.0000 0.71730  0.81080  0.77730  Biso   1.000  C
  H33      1.0000 0.65840  0.79530  0.75780  Biso   1.000  H
  C36      1.0000 0.73010  0.87090  0.77050  Biso   1.000  C
  In3      1.0000 0.88431  0.96685  0.81106  Biso   1.000  In
  In4      1.0000 0.67199  0.97062  0.66714  Biso   1.000  In
  O16      1.0000 0.57510  0.94060  0.57360  Biso   1.000  O
  H34      1.0000 0.56570  0.90300  0.56500  Biso   1.000  H
  O17      1.0000 0.76080  0.00835  0.75940  Biso   1.000  O
  H35      1.0000 0.74590  0.04220  0.77680  Biso   1.000  H
  O18      1.0000 0.87440  0.98541  0.91880  Biso   1.000  O
  H36      1.0000 0.81650  0.98710  0.93000  Biso   1.000  H
  O19      1.0000 0.71030  0.04143  0.61050  Biso   1.000  O
  O20      1.0000 0.62930  0.03856  0.49050  Biso   1.000  O
  O21      1.0000 0.99290  0.41900  0.64300  Biso   1.000  O
  O22      1.0000 0.95560  0.41728  0.51850  Biso   1.000  O
  O23      1.0000 0.22090  0.07468  0.37340  Biso   1.000  O
  O24      1.0000 0.08600  0.05090  0.29330  Biso   1.000  O
  O25      1.0000 0.06850  0.03884  0.92270  Biso   1.000  O
  O26      1.0000 0.96380  0.04059  0.81220  Biso   1.000  O
  O27      1.0000 0.49610  0.05295  0.58890  Biso   1.000  O
  O28      1.0000 0.55560  0.01077  0.69760  Biso   1.000  O
  O29      1.0000 0.33710  0.39689  0.77140  Biso   1.000  O
  O30      1.0000 0.19220  0.39132  0.69380  Biso   1.000  O
  C37      1.0000 0.69720  0.05450  0.54330  Biso   1.000  C
  C38      1.0000 0.76700  0.09210  0.52280  Biso   1.000  C
  H37      1.0000 0.75980  0.09980  0.47300  Biso   1.000  H
  C39      1.0000 0.83730  0.11450  0.57080  Biso   1.000  C
  H38      1.0000 0.84370  0.10780  0.62080  Biso   1.000  H
  C40      1.0000 0.90830  0.15060  0.54920  Biso   1.000  C
  C41      1.0000 0.90250  0.20800  0.55220  Biso   1.000  C
  C42      1.0000 0.96870  0.24060  0.52820  Biso   1.000  C
  C43      1.0000 0.03770  0.21500  0.49940  Biso   1.000  C
  C44      1.0000 0.04280  0.15720  0.49630  Biso   1.000  C
  C45      1.0000 0.97980  0.12490  0.52330  Biso   1.000  C
  C46      1.0000 0.82330  0.23380  0.57870  Biso   1.000  C
  H39      1.0000 0.82850  0.27320  0.57780  Biso   1.000  H
  H40      1.0000 0.76420  0.22260  0.54680  Biso   1.000  H
  H41      1.0000 0.82710  0.22180  0.62840  Biso   1.000  H
  C47      1.0000 0.10720  0.25000  0.47260  Biso   1.000  C
  H42      1.0000 0.09420  0.28830  0.47850  Biso   1.000  H
  H43      1.0000 0.16970  0.24160  0.50100  Biso   1.000  H
  H44      1.0000 0.10170  0.24240  0.42130  Biso   1.000  H
  C48      1.0000 0.98900  0.06310  0.52640  Biso   1.000  C
  H45      1.0000 0.94060  0.04770  0.54620  Biso   1.000  H
  H46      1.0000 0.98310  0.04900  0.47740  Biso   1.000  H
  H47      1.0000 0.04940  0.05320  0.55760  Biso   1.000  H
  C49      1.0000 0.96610  0.30170  0.52860  Biso   1.000  C
  H48      1.0000 0.96980  0.31940  0.48530  Biso   1.000  H
  C50      1.0000 0.95900  0.33370  0.58450  Biso   1.000  C
  H49      1.0000 0.94760  0.31780  0.62660  Biso   1.000  H
  C51      1.0000 0.96890  0.39430  0.58080  Biso   1.000  C
  C52      1.0000 0.10720  0.13040  0.45750  Biso   1.000  C
  H50      1.0000 0.17170  0.13370  0.47720  Biso   1.000  H
  C53      1.0000 0.07540  0.10180  0.39570  Biso   1.000  C
  H51      1.0000 0.01060  0.09880  0.37780  Biso   1.000  H
  C54      1.0000 0.13480  0.07390  0.35200  Biso   1.000  C
  C55      1.0000 0.04040  0.05310  0.85600  Biso   1.000  C
  C56      1.0000 0.10450  0.08790  0.82540  Biso   1.000  C
  H52      1.0000 0.15870  0.10170  0.85760  Biso   1.000  H
  C57      1.0000 0.08730  0.09990  0.75460  Biso   1.000  C
  H53      1.0000 0.03070  0.08790  0.72370  Biso   1.000  H
  C58      1.0000 0.15240  0.13130  0.72060  Biso   1.000  C
  C59      1.0000 0.21860  0.10130  0.69440  Biso   1.000  C
  C60      1.0000 0.28380  0.13070  0.66630  Biso   1.000  C
  C61      1.0000 0.28080  0.18850  0.66110  Biso   1.000  C
  C62      1.0000 0.21410  0.21740  0.68730  Biso   1.000  C
  C63      1.0000 0.14870  0.18850  0.71660  Biso   1.000  C
  C64      1.0000 0.21780  0.03920  0.69620  Biso   1.000  C
  H54      1.0000 0.26730  0.02520  0.67650  Biso   1.000  H
  H55      1.0000 0.22720  0.02690  0.74640  Biso   1.000  H
  H56      1.0000 0.15850  0.02590  0.66700  Biso   1.000  H
  C65      1.0000 0.35010  0.21730  0.62690  Biso   1.000  C
  H57      1.0000 0.38980  0.19040  0.61240  Biso   1.000  H
  H58      1.0000 0.31680  0.23770  0.58420  Biso   1.000  H
  H59      1.0000 0.38790  0.24210  0.66240  Biso   1.000  H
  C66      1.0000 0.07550  0.21990  0.74420  Biso   1.000  C
  H60      1.0000 0.08290  0.25870  0.73730  Biso   1.000  H
  H61      1.0000 0.01390  0.20860  0.71690  Biso   1.000  H
  H62      1.0000 0.08340  0.21230  0.79590  Biso   1.000  H
  C67      1.0000 0.35910  0.10100  0.64210  Biso   1.000  C
  H63      1.0000 0.35920  0.10370  0.59250  Biso   1.000  H
  C68      1.0000 0.42680  0.07050  0.68620  Biso   1.000  C
  H64      1.0000 0.42940  0.06700  0.73620  Biso   1.000  H
  C69      1.0000 0.49660  0.04270  0.65540  Biso   1.000  C
  C70      1.0000 0.21080  0.27840  0.68880  Biso   1.000  C
  H65      1.0000 0.15490  0.29540  0.66450  Biso   1.000  H
  C71      1.0000 0.28270  0.31080  0.72270  Biso   1.000  C
  H66      1.0000 0.34160  0.29530  0.74220  Biso   1.000  H
  C72      1.0000 0.26990  0.37090  0.72950  Biso   1.000  C
  In5      1.0000 0.88431  0.53315  0.31106  Biso   1.000  In
  In6      1.0000 0.67199  0.52938  0.16714  Biso   1.000  In
  O31      1.0000 0.57510  0.55940  0.07360  Biso   1.000  O
  H67      1.0000 0.56570  0.59700  0.06500  Biso   1.000  H
  O32      1.0000 0.76080  0.49165  0.25940  Biso   1.000  O
  H68      1.0000 0.74590  0.45780  0.27680  Biso   1.000  H
  O33      1.0000 0.87440  0.51459  0.41880  Biso   1.000  O
  H69      1.0000 0.81650  0.51290  0.43000  Biso   1.000  H
  O34      1.0000 0.71030  0.45857  0.11050  Biso   1.000  O
  O35      1.0000 0.62930  0.46144  0.99050  Biso   1.000  O
  O36      1.0000 0.99290  0.08100  0.14300  Biso   1.000  O
  O37      1.0000 0.95560  0.08272  0.01850  Biso   1.000  O
  O38      1.0000 0.22090  0.42532  0.87340  Biso   1.000  O
  O39      1.0000 0.08600  0.44910  0.79330  Biso   1.000  O
  O40      1.0000 0.06850  0.46116  0.42270  Biso   1.000  O
  O41      1.0000 0.96380  0.45941  0.31220  Biso   1.000  O
  O42      1.0000 0.49610  0.44705  0.08890  Biso   1.000  O
  O43      1.0000 0.55560  0.48923  0.19760  Biso   1.000  O
  O44      1.0000 0.33710  0.10311  0.27140  Biso   1.000  O
  O45      1.0000 0.19220  0.10868  0.19380  Biso   1.000  O
  C73      1.0000 0.69720  0.44550  0.04330  Biso   1.000  C
  C74      1.0000 0.76700  0.40790  0.02280  Biso   1.000  C
  H70      1.0000 0.75980  0.40020  0.97300  Biso   1.000  H
  C75      1.0000 0.83730  0.38550  0.07080  Biso   1.000  C
  H71      1.0000 0.84370  0.39220  0.12080  Biso   1.000  H
  C76      1.0000 0.90830  0.34940  0.04920  Biso   1.000  C
  C77      1.0000 0.90250  0.29200  0.05220  Biso   1.000  C
  C78      1.0000 0.96870  0.25940  0.02820  Biso   1.000  C
  C79      1.0000 0.03770  0.28500  0.99940  Biso   1.000  C
  C80      1.0000 0.04280  0.34280  0.99630  Biso   1.000  C
  C81      1.0000 0.97980  0.37510  0.02330  Biso   1.000  C
  C82      1.0000 0.82330  0.26620  0.07870  Biso   1.000  C
  H72      1.0000 0.82850  0.22680  0.07780  Biso   1.000  H
  H73      1.0000 0.76420  0.27740  0.04680  Biso   1.000  H
  H74      1.0000 0.82710  0.27820  0.12840  Biso   1.000  H
  C83      1.0000 0.10720  0.25000  0.97260  Biso   1.000  C
  H75      1.0000 0.09420  0.21170  0.97850  Biso   1.000  H
  H76      1.0000 0.16970  0.25840  0.00100  Biso   1.000  H
  H77      1.0000 0.10170  0.25760  0.92130  Biso   1.000  H
  C84      1.0000 0.98900  0.43690  0.02640  Biso   1.000  C
  H78      1.0000 0.94060  0.45230  0.04620  Biso   1.000  H
  H79      1.0000 0.98310  0.45100  0.97740  Biso   1.000  H
  H80      1.0000 0.04940  0.44680  0.05760  Biso   1.000  H
  C85      1.0000 0.96610  0.19830  0.02860  Biso   1.000  C
  H81      1.0000 0.96980  0.18060  0.98530  Biso   1.000  H
  C86      1.0000 0.95900  0.16630  0.08450  Biso   1.000  C
  H82      1.0000 0.94760  0.18220  0.12660  Biso   1.000  H
  C87      1.0000 0.96890  0.10570  0.08080  Biso   1.000  C
  C88      1.0000 0.10720  0.36960  0.95750  Biso   1.000  C
  H83      1.0000 0.17170  0.36630  0.97720  Biso   1.000  H
  C89      1.0000 0.07540  0.39820  0.89570  Biso   1.000  C
  H84      1.0000 0.01060  0.40120  0.87780  Biso   1.000  H
  C90      1.0000 0.13480  0.42610  0.85200  Biso   1.000  C
  C91      1.0000 0.04040  0.44690  0.35600  Biso   1.000  C
  C92      1.0000 0.10450  0.41210  0.32540  Biso   1.000  C
  H85      1.0000 0.15870  0.39830  0.35760  Biso   1.000  H
  C93      1.0000 0.08730  0.40010  0.25460  Biso   1.000  C
  H86      1.0000 0.03070  0.41210  0.22370  Biso   1.000  H
  C94      1.0000 0.15240  0.36870  0.22060  Biso   1.000  C
  C95      1.0000 0.21860  0.39870  0.19440  Biso   1.000  C
  C96      1.0000 0.28380  0.36930  0.16630  Biso   1.000  C
  C97      1.0000 0.28080  0.31150  0.16110  Biso   1.000  C
  C98      1.0000 0.21410  0.28260  0.18730  Biso   1.000  C
  C99      1.0000 0.14870  0.31150  0.21660  Biso   1.000  C
  C100     1.0000 0.21780  0.46080  0.19620  Biso   1.000  C
  H87      1.0000 0.26730  0.47480  0.17650  Biso   1.000  H
  H88      1.0000 0.22720  0.47310  0.24640  Biso   1.000  H
  H89      1.0000 0.15850  0.47410  0.16700  Biso   1.000  H
  C101     1.0000 0.35010  0.28270  0.12690  Biso   1.000  C
  H90      1.0000 0.38980  0.30960  0.11240  Biso   1.000  H
  H91      1.0000 0.31680  0.26230  0.08420  Biso   1.000  H
  H92      1.0000 0.38790  0.25790  0.16240  Biso   1.000  H
  C102     1.0000 0.07550  0.28010  0.24420  Biso   1.000  C
  H93      1.0000 0.08290  0.24130  0.23730  Biso   1.000  H
  H94      1.0000 0.01390  0.29140  0.21690  Biso   1.000  H
  H95      1.0000 0.08340  0.28770  0.29590  Biso   1.000  H
  C103     1.0000 0.35910  0.39900  0.14210  Biso   1.000  C
  H96      1.0000 0.35920  0.39630  0.09250  Biso   1.000  H
  C104     1.0000 0.42680  0.42950  0.18620  Biso   1.000  C
  H97      1.0000 0.42940  0.43300  0.23620  Biso   1.000  H
  C105     1.0000 0.49660  0.45730  0.15540  Biso   1.000  C
  C106     1.0000 0.21080  0.22160  0.18880  Biso   1.000  C
  H98      1.0000 0.15490  0.20460  0.16450  Biso   1.000  H
  C107     1.0000 0.28270  0.18920  0.22270  Biso   1.000  C
  H99      1.0000 0.34160  0.20470  0.24220  Biso   1.000  H
  C108     1.0000 0.26990  0.12910  0.22950  Biso   1.000  C
  In7      1.0000 0.11569  0.03315  0.18894  Biso   1.000  In
  In8      1.0000 0.32801  0.02938  0.33286  Biso   1.000  In
  O46      1.0000 0.42490  0.05940  0.42640  Biso   1.000  O
  H100     1.0000 0.43430  0.09700  0.43500  Biso   1.000  H
  O47      1.0000 0.23920  0.99165  0.24060  Biso   1.000  O
  H101     1.0000 0.25410  0.95780  0.22320  Biso   1.000  H
  O48      1.0000 0.12560  0.01459  0.08120  Biso   1.000  O
  H102     1.0000 0.18350  0.01290  0.07000  Biso   1.000  H
  O49      1.0000 0.28970  0.95857  0.38950  Biso   1.000  O
  O50      1.0000 0.37070  0.96144  0.50950  Biso   1.000  O
  O51      1.0000 0.00710  0.58100  0.35700  Biso   1.000  O
  O52      1.0000 0.04440  0.58272  0.48150  Biso   1.000  O
  O53      1.0000 0.77910  0.92532  0.62660  Biso   1.000  O
  O54      1.0000 0.91400  0.94910  0.70670  Biso   1.000  O
  O55      1.0000 0.93150  0.96116  0.07730  Biso   1.000  O
  O56      1.0000 0.03620  0.95941  0.18780  Biso   1.000  O
  O57      1.0000 0.50390  0.94705  0.41110  Biso   1.000  O
  O58      1.0000 0.44440  0.98923  0.30240  Biso   1.000  O
  O59      1.0000 0.66290  0.60311  0.22860  Biso   1.000  O
  O60      1.0000 0.80780  0.60868  0.30620  Biso   1.000  O
  C109     1.0000 0.30280  0.94550  0.45670  Biso   1.000  C
  C110     1.0000 0.23300  0.90790  0.47720  Biso   1.000  C
  H103     1.0000 0.24020  0.90020  0.52700  Biso   1.000  H
  C111     1.0000 0.16270  0.88550  0.42920  Biso   1.000  C
  H104     1.0000 0.15630  0.89220  0.37920  Biso   1.000  H
  C112     1.0000 0.09170  0.84940  0.45080  Biso   1.000  C
  C113     1.0000 0.09750  0.79200  0.44780  Biso   1.000  C
  C114     1.0000 0.03130  0.75940  0.47180  Biso   1.000  C
  C115     1.0000 0.96230  0.78500  0.50060  Biso   1.000  C
  C116     1.0000 0.95720  0.84280  0.50370  Biso   1.000  C
  C117     1.0000 0.02020  0.87510  0.47670  Biso   1.000  C
  C118     1.0000 0.17670  0.76620  0.42130  Biso   1.000  C
  H105     1.0000 0.17150  0.72680  0.42220  Biso   1.000  H
  H106     1.0000 0.23580  0.77740  0.45320  Biso   1.000  H
  H107     1.0000 0.17290  0.77820  0.37160  Biso   1.000  H
  C119     1.0000 0.89280  0.75000  0.52740  Biso   1.000  C
  H108     1.0000 0.90580  0.71170  0.52150  Biso   1.000  H
  H109     1.0000 0.83030  0.75840  0.49900  Biso   1.000  H
  H110     1.0000 0.89830  0.75760  0.57870  Biso   1.000  H
  C120     1.0000 0.01100  0.93690  0.47360  Biso   1.000  C
  H111     1.0000 0.05940  0.95230  0.45380  Biso   1.000  H
  H112     1.0000 0.01690  0.95100  0.52260  Biso   1.000  H
  H113     1.0000 0.95060  0.94680  0.44240  Biso   1.000  H
  C121     1.0000 0.03390  0.69830  0.47140  Biso   1.000  C
  H114     1.0000 0.03020  0.68060  0.51470  Biso   1.000  H
  C122     1.0000 0.04100  0.66630  0.41550  Biso   1.000  C
  H115     1.0000 0.05240  0.68220  0.37340  Biso   1.000  H
  C123     1.0000 0.03110  0.60570  0.41920  Biso   1.000  C
  C124     1.0000 0.89280  0.86960  0.54250  Biso   1.000  C
  H116     1.0000 0.82830  0.86630  0.52280  Biso   1.000  H
  C125     1.0000 0.92460  0.89820  0.60430  Biso   1.000  C
  H117     1.0000 0.98940  0.90120  0.62220  Biso   1.000  H
  C126     1.0000 0.86520  0.92610  0.64800  Biso   1.000  C
  C127     1.0000 0.95960  0.94690  0.14400  Biso   1.000  C
  C128     1.0000 0.89550  0.91210  0.17460  Biso   1.000  C
  H118     1.0000 0.84130  0.89830  0.14240  Biso   1.000  H
  C129     1.0000 0.91270  0.90010  0.24540  Biso   1.000  C
  H119     1.0000 0.96930  0.91210  0.27630  Biso   1.000  H
  C130     1.0000 0.84760  0.86870  0.27940  Biso   1.000  C
  C131     1.0000 0.78140  0.89870  0.30560  Biso   1.000  C
  C132     1.0000 0.71620  0.86930  0.33370  Biso   1.000  C
  C133     1.0000 0.71920  0.81150  0.33890  Biso   1.000  C
  C134     1.0000 0.78590  0.78260  0.31270  Biso   1.000  C
  C135     1.0000 0.85130  0.81150  0.28340  Biso   1.000  C
  C136     1.0000 0.78220  0.96080  0.30380  Biso   1.000  C
  H120     1.0000 0.73270  0.97480  0.32350  Biso   1.000  H
  H121     1.0000 0.77280  0.97310  0.25360  Biso   1.000  H
  H122     1.0000 0.84150  0.97410  0.33300  Biso   1.000  H
  C137     1.0000 0.64990  0.78270  0.37310  Biso   1.000  C
  H123     1.0000 0.61020  0.80960  0.38760  Biso   1.000  H
  H124     1.0000 0.68320  0.76230  0.41580  Biso   1.000  H
  H125     1.0000 0.61210  0.75790  0.33760  Biso   1.000  H
  C138     1.0000 0.92450  0.78010  0.25580  Biso   1.000  C
  H126     1.0000 0.91710  0.74130  0.26270  Biso   1.000  H
  H127     1.0000 0.98610  0.79140  0.28310  Biso   1.000  H
  H128     1.0000 0.91660  0.78770  0.20410  Biso   1.000  H
  C139     1.0000 0.64090  0.89900  0.35790  Biso   1.000  C
  H129     1.0000 0.64080  0.89630  0.40750  Biso   1.000  H
  C140     1.0000 0.57320  0.92950  0.31380  Biso   1.000  C
  H130     1.0000 0.57060  0.93300  0.26380  Biso   1.000  H
  C141     1.0000 0.50340  0.95730  0.34460  Biso   1.000  C
  C142     1.0000 0.78920  0.72160  0.31120  Biso   1.000  C
  H131     1.0000 0.84510  0.70460  0.33550  Biso   1.000  H
  C143     1.0000 0.71730  0.68920  0.27730  Biso   1.000  C
  H132     1.0000 0.65840  0.70470  0.25780  Biso   1.000  H
  C144     1.0000 0.73010  0.62910  0.27050  Biso   1.000  C
  In9      1.0000 0.00000  0.50000  0.50000  Biso   1.000  In
  In10     1.0000 0.00000  0.00000  0.00000  Biso   1.000  In
  In11     1.0000 0.50000  0.50000  0.00000  Biso   1.000  In
  In12     1.0000 0.50000  0.00000  0.50000  Biso   1.000  In
