data_image0
_cell_length_a       10.983
_cell_length_b       10.983
_cell_length_c       9.702
_cell_angle_alpha    90
_cell_angle_beta     90
_cell_angle_gamma    90

_symmetry_space_group_name_H-M    "P 1"
_symmetry_int_tables_number       1

loop_
  _symmetry_equiv_pos_as_xyz
  'x, y, z'

loop_
  _atom_site_label
  _atom_site_occupancy
  _atom_site_fract_x
  _atom_site_fract_y
  _atom_site_fract_z
  _atom_site_thermal_displace_type
  _atom_site_B_iso_or_equiv
  _atom_site_type_symbol
  C1       1.0000 0.45000  0.38200  0.41750  Biso   1.000  C
  C2       1.0000 0.55000  0.61800  0.41750  Biso   1.000  C
  C3       1.0000 0.61800  0.45000  0.41750  Biso   1.000  C
  C4       1.0000 0.38200  0.55000  0.41750  Biso   1.000  C
  C5       1.0000 0.55000  0.38200  0.58250  Biso   1.000  C
  C6       1.0000 0.45000  0.61800  0.58250  Biso   1.000  C
  C7       1.0000 0.38200  0.45000  0.58250  Biso   1.000  C
  C8       1.0000 0.61800  0.55000  0.58250  Biso   1.000  C
  C9       1.0000 0.55000  0.61800  0.58250  Biso   1.000  C
  C10      1.0000 0.45000  0.38200  0.58250  Biso   1.000  C
  C11      1.0000 0.38200  0.55000  0.58250  Biso   1.000  C
  C12      1.0000 0.61800  0.45000  0.58250  Biso   1.000  C
  C13      1.0000 0.45000  0.61800  0.41750  Biso   1.000  C
  C14      1.0000 0.55000  0.38200  0.41750  Biso   1.000  C
  C15      1.0000 0.61800  0.55000  0.41750  Biso   1.000  C
  C16      1.0000 0.38200  0.45000  0.41750  Biso   1.000  C
  Zn1      1.0000 0.50000  0.50000  0.15132  Biso   1.000  Zn
  N1       1.0000 0.50000  0.50000  0.36770  Biso   1.000  N
  Zn2      1.0000 0.50000  0.50000  0.84868  Biso   1.000  Zn
  N2       1.0000 0.50000  0.50000  0.63230  Biso   1.000  N
  O1       1.0000 0.50000  0.31700  0.11510  Biso   1.000  O
  C17      1.0000 0.50000  0.06380  0.12190  Biso   1.000  C
  H1       1.0000 0.50000  0.10560  0.20530  Biso   1.000  H
  O2       1.0000 0.50000  0.68300  0.11510  Biso   1.000  O
  C18      1.0000 0.50000  0.93620  0.12190  Biso   1.000  C
  H2       1.0000 0.50000  0.89440  0.20530  Biso   1.000  H
  O3       1.0000 0.68300  0.50000  0.11510  Biso   1.000  O
  C19      1.0000 0.93620  0.50000  0.12190  Biso   1.000  C
  H3       1.0000 0.89440  0.50000  0.20530  Biso   1.000  H
  O4       1.0000 0.31700  0.50000  0.11510  Biso   1.000  O
  C20      1.0000 0.06380  0.50000  0.12190  Biso   1.000  C
  H4       1.0000 0.10560  0.50000  0.20530  Biso   1.000  H
  O5       1.0000 0.50000  0.31700  0.88490  Biso   1.000  O
  C21      1.0000 0.50000  0.06380  0.87810  Biso   1.000  C
  H5       1.0000 0.50000  0.10560  0.79470  Biso   1.000  H
  O6       1.0000 0.50000  0.68300  0.88490  Biso   1.000  O
  C22      1.0000 0.50000  0.93620  0.87810  Biso   1.000  C
  H6       1.0000 0.50000  0.89440  0.79470  Biso   1.000  H
  O7       1.0000 0.31700  0.50000  0.88490  Biso   1.000  O
  C23      1.0000 0.06380  0.50000  0.87810  Biso   1.000  C
  H7       1.0000 0.10560  0.50000  0.79470  Biso   1.000  H
  O8       1.0000 0.68300  0.50000  0.88490  Biso   1.000  O
  C24      1.0000 0.93620  0.50000  0.87810  Biso   1.000  C
  H8       1.0000 0.89440  0.50000  0.79470  Biso   1.000  H
  C25      1.0000 0.50000  0.26570  0.00000  Biso   1.000  C
  C26      1.0000 0.50000  0.12830  0.00000  Biso   1.000  C
  C27      1.0000 0.50000  0.73430  0.00000  Biso   1.000  C
  C28      1.0000 0.50000  0.87170  0.00000  Biso   1.000  C
  C29      1.0000 0.73430  0.50000  0.00000  Biso   1.000  C
  C30      1.0000 0.87170  0.50000  0.00000  Biso   1.000  C
  C31      1.0000 0.26570  0.50000  0.00000  Biso   1.000  C
  C32      1.0000 0.12830  0.50000  0.00000  Biso   1.000  C
