data_WAJHUM_clean
_audit_creation_date              2014-07-02
_audit_creation_method            'Materials Studio'
_symmetry_space_group_name_H-M    'P1'
_symmetry_Int_Tables_number       1
_symmetry_cell_setting            triclinic
loop_
_symmetry_equiv_pos_as_xyz
  x,y,z
_cell_length_a                    11.2519
_cell_length_b                    16.3463
_cell_length_c                    16.3463
_cell_angle_alpha                 90.0000
_cell_angle_beta                  90.0000
_cell_angle_gamma                 90.0000
loop_
_atom_site_label
_atom_site_type_symbol
_atom_site_fract_x
_atom_site_fract_y
_atom_site_fract_z
_atom_site_U_iso_or_equiv
_atom_site_adp_type
_atom_site_occupancy
Li1    Li    0.12590   0.82560   0.40350   0.01267  Uiso   1.00
Li2    Li    0.62590   0.17440   0.59650   0.01267  Uiso   1.00
Li3    Li    0.87590   0.09650   0.32560   0.01267  Uiso   1.00
Li4    Li    0.37590   0.90350   0.67440   0.01267  Uiso   1.00
Li5    Li    0.62410   0.67440   0.90350   0.01267  Uiso   1.00
Li6    Li    0.12410   0.32560   0.09650   0.01267  Uiso   1.00
Li7    Li    0.87410   0.40350   0.82560   0.01267  Uiso   1.00
Li8    Li    0.37410   0.59650   0.17440   0.01267  Uiso   1.00
Zn1    Zn    0.91062   0.91657   0.32716   0.01267  Uiso   1.00
Zn2    Zn    0.41062   0.08343   0.67284   0.01267  Uiso   1.00
Zn3    Zn    0.66062   0.17284   0.41657   0.01267  Uiso   1.00
Zn4    Zn    0.16062   0.82716   0.58343   0.01267  Uiso   1.00
Zn5    Zn    0.83938   0.58343   0.82716   0.01267  Uiso   1.00
Zn6    Zn    0.33938   0.41657   0.17284   0.01267  Uiso   1.00
Zn7    Zn    0.08938   0.32716   0.91657   0.01267  Uiso   1.00
Zn8    Zn    0.58938   0.67284   0.08343   0.01267  Uiso   1.00
H1     H     0.65660   0.86880   0.25400   0.01267  Uiso   1.00
H2     H     0.38570   0.74960   0.36150   0.01267  Uiso   1.00
H3     H     0.52060   0.95190   0.46490   0.01267  Uiso   1.00
H4     H     0.15660   0.13120   0.74600   0.01267  Uiso   1.00
H5     H     0.88570   0.25040   0.63850   0.01267  Uiso   1.00
H6     H     0.02060   0.04810   0.53510   0.01267  Uiso   1.00
H7     H     0.40660   0.24600   0.36880   0.01267  Uiso   1.00
H8     H     0.13570   0.13850   0.24960   0.01267  Uiso   1.00
H9     H     0.27060   0.03510   0.45190   0.01267  Uiso   1.00
H10    H     0.90660   0.75400   0.63120   0.01267  Uiso   1.00
H11    H     0.63570   0.86150   0.75040   0.01267  Uiso   1.00
H12    H     0.77060   0.96490   0.54810   0.01267  Uiso   1.00
H13    H     0.09340   0.63120   0.75400   0.01267  Uiso   1.00
H14    H     0.36430   0.75040   0.86150   0.01267  Uiso   1.00
H15    H     0.22940   0.54810   0.96490   0.01267  Uiso   1.00
H16    H     0.59340   0.36880   0.24600   0.01267  Uiso   1.00
H17    H     0.86430   0.24960   0.13850   0.01267  Uiso   1.00
H18    H     0.72940   0.45190   0.03510   0.01267  Uiso   1.00
H19    H     0.34340   0.25400   0.86880   0.01267  Uiso   1.00
H20    H     0.61430   0.36150   0.74960   0.01267  Uiso   1.00
H21    H     0.47940   0.46490   0.95190   0.01267  Uiso   1.00
H22    H     0.84340   0.74600   0.13120   0.01267  Uiso   1.00
H23    H     0.11430   0.63850   0.25040   0.01267  Uiso   1.00
H24    H     0.97940   0.53510   0.04810   0.01267  Uiso   1.00
C1     C     0.67340   0.99760   0.35510   0.01267  Uiso   1.00
C2     C     0.51760   0.73860   0.22780   0.01267  Uiso   1.00
C3     C     0.35760   0.84380   0.49590   0.01267  Uiso   1.00
C4     C     0.59890   0.92230   0.35810   0.01267  Uiso   1.00
C5     C     0.60130   0.86430   0.29600   0.01267  Uiso   1.00
C6     C     0.52090   0.79950   0.29660   0.01267  Uiso   1.00
C7     C     0.44040   0.79230   0.36110   0.01267  Uiso   1.00
C8     C     0.44180   0.84890   0.42470   0.01267  Uiso   1.00
C9     C     0.52050   0.91380   0.42270   0.01267  Uiso   1.00
C10    C     0.17340   0.00240   0.64490   0.01267  Uiso   1.00
C11    C     0.01760   0.26140   0.77220   0.01267  Uiso   1.00
C12    C     0.85760   0.15620   0.50410   0.01267  Uiso   1.00
C13    C     0.09890   0.07770   0.64190   0.01267  Uiso   1.00
C14    C     0.10130   0.13570   0.70400   0.01267  Uiso   1.00
C15    C     0.02090   0.20050   0.70340   0.01267  Uiso   1.00
C16    C     0.94040   0.20770   0.63890   0.01267  Uiso   1.00
C17    C     0.94180   0.15110   0.57530   0.01267  Uiso   1.00
C18    C     0.02050   0.08620   0.57730   0.01267  Uiso   1.00
C19    C     0.42340   0.14490   0.49760   0.01267  Uiso   1.00
C20    C     0.26760   0.27220   0.23860   0.01267  Uiso   1.00
C21    C     0.10760   0.00410   0.34380   0.01267  Uiso   1.00
C22    C     0.34890   0.14190   0.42230   0.01267  Uiso   1.00
C23    C     0.35130   0.20400   0.36430   0.01267  Uiso   1.00
C24    C     0.27090   0.20340   0.29950   0.01267  Uiso   1.00
C25    C     0.19040   0.13890   0.29230   0.01267  Uiso   1.00
C26    C     0.19180   0.07530   0.34890   0.01267  Uiso   1.00
C27    C     0.27050   0.07730   0.41380   0.01267  Uiso   1.00
C28    C     0.92340   0.85510   0.50240   0.01267  Uiso   1.00
C29    C     0.76760   0.72780   0.76140   0.01267  Uiso   1.00
C30    C     0.60760   0.99590   0.65620   0.01267  Uiso   1.00
C31    C     0.84890   0.85810   0.57770   0.01267  Uiso   1.00
C32    C     0.85130   0.79600   0.63570   0.01267  Uiso   1.00
C33    C     0.77090   0.79660   0.70050   0.01267  Uiso   1.00
C34    C     0.69040   0.86110   0.70770   0.01267  Uiso   1.00
C35    C     0.69180   0.92470   0.65110   0.01267  Uiso   1.00
C36    C     0.77050   0.92270   0.58620   0.01267  Uiso   1.00
C37    C     0.07660   0.50240   0.85510   0.01267  Uiso   1.00
C38    C     0.23240   0.76140   0.72780   0.01267  Uiso   1.00
C39    C     0.39240   0.65620   0.99590   0.01267  Uiso   1.00
C40    C     0.15110   0.57770   0.85810   0.01267  Uiso   1.00
C41    C     0.14870   0.63570   0.79600   0.01267  Uiso   1.00
C42    C     0.22910   0.70050   0.79660   0.01267  Uiso   1.00
C43    C     0.30960   0.70770   0.86110   0.01267  Uiso   1.00
C44    C     0.30820   0.65110   0.92470   0.01267  Uiso   1.00
C45    C     0.22950   0.58620   0.92270   0.01267  Uiso   1.00
C46    C     0.57660   0.49760   0.14490   0.01267  Uiso   1.00
C47    C     0.73240   0.23860   0.27220   0.01267  Uiso   1.00
C48    C     0.89240   0.34380   0.00410   0.01267  Uiso   1.00
C49    C     0.65110   0.42230   0.14190   0.01267  Uiso   1.00
C50    C     0.64870   0.36430   0.20400   0.01267  Uiso   1.00
C51    C     0.72910   0.29950   0.20340   0.01267  Uiso   1.00
C52    C     0.80960   0.29230   0.13890   0.01267  Uiso   1.00
C53    C     0.80820   0.34890   0.07530   0.01267  Uiso   1.00
C54    C     0.72950   0.41380   0.07730   0.01267  Uiso   1.00
C55    C     0.32660   0.35510   0.99760   0.01267  Uiso   1.00
C56    C     0.48240   0.22780   0.73860   0.01267  Uiso   1.00
C57    C     0.64240   0.49590   0.84380   0.01267  Uiso   1.00
C58    C     0.40110   0.35810   0.92230   0.01267  Uiso   1.00
C59    C     0.39870   0.29600   0.86430   0.01267  Uiso   1.00
C60    C     0.47910   0.29660   0.79950   0.01267  Uiso   1.00
C61    C     0.55960   0.36110   0.79230   0.01267  Uiso   1.00
C62    C     0.55820   0.42470   0.84890   0.01267  Uiso   1.00
C63    C     0.47950   0.42270   0.91380   0.01267  Uiso   1.00
C64    C     0.82660   0.64490   0.00240   0.01267  Uiso   1.00
C65    C     0.98240   0.77220   0.26140   0.01267  Uiso   1.00
C66    C     0.14240   0.50410   0.15620   0.01267  Uiso   1.00
C67    C     0.90110   0.64190   0.07770   0.01267  Uiso   1.00
C68    C     0.89870   0.70400   0.13570   0.01267  Uiso   1.00
C69    C     0.97910   0.70340   0.20050   0.01267  Uiso   1.00
C70    C     0.05960   0.63890   0.20770   0.01267  Uiso   1.00
C71    C     0.05820   0.57530   0.15110   0.01267  Uiso   1.00
C72    C     0.97950   0.57730   0.08620   0.01267  Uiso   1.00
O1     O     0.77260   0.99706   0.31882   0.01267  Uiso   1.00
O2     O     0.62930   0.05893   0.38954   0.01267  Uiso   1.00
O3     O     0.59420   0.74953   0.17079   0.01267  Uiso   1.00
O4     O     0.44290   0.68411   0.22873   0.01267  Uiso   1.00
O5     O     0.25960   0.80668   0.48431   0.01267  Uiso   1.00
O6     O     0.38470   0.87600   0.56140   0.01267  Uiso   1.00
O7     O     0.27260   0.00294   0.68118   0.01267  Uiso   1.00
O8     O     0.12930   0.94107   0.61046   0.01267  Uiso   1.00
O9     O     0.09420   0.25047   0.82921   0.01267  Uiso   1.00
O10    O     0.94290   0.31589   0.77127   0.01267  Uiso   1.00
O11    O     0.75960   0.19332   0.51569   0.01267  Uiso   1.00
O12    O     0.88470   0.12400   0.43860   0.01267  Uiso   1.00
O13    O     0.52260   0.18118   0.49706   0.01267  Uiso   1.00
O14    O     0.37930   0.11046   0.55893   0.01267  Uiso   1.00
O15    O     0.34420   0.32921   0.24953   0.01267  Uiso   1.00
O16    O     0.19290   0.27127   0.18411   0.01267  Uiso   1.00
O17    O     0.00960   0.01569   0.30668   0.01267  Uiso   1.00
O18    O     0.13470   0.93860   0.37600   0.01267  Uiso   1.00
O19    O     0.02260   0.81882   0.50294   0.01267  Uiso   1.00
O20    O     0.87930   0.88954   0.44107   0.01267  Uiso   1.00
O21    O     0.84420   0.67079   0.75047   0.01267  Uiso   1.00
O22    O     0.69290   0.72873   0.81589   0.01267  Uiso   1.00
O23    O     0.50960   0.98431   0.69332   0.01267  Uiso   1.00
O24    O     0.63470   0.06140   0.62400   0.01267  Uiso   1.00
O25    O     0.97740   0.50294   0.81882   0.01267  Uiso   1.00
O26    O     0.12070   0.44107   0.88954   0.01267  Uiso   1.00
O27    O     0.15580   0.75047   0.67079   0.01267  Uiso   1.00
O28    O     0.30710   0.81589   0.72873   0.01267  Uiso   1.00
O29    O     0.49040   0.69332   0.98431   0.01267  Uiso   1.00
O30    O     0.36530   0.62400   0.06140   0.01267  Uiso   1.00
O31    O     0.47740   0.49706   0.18118   0.01267  Uiso   1.00
O32    O     0.62070   0.55893   0.11046   0.01267  Uiso   1.00
O33    O     0.65580   0.24953   0.32921   0.01267  Uiso   1.00
O34    O     0.80710   0.18411   0.27127   0.01267  Uiso   1.00
O35    O     0.99040   0.30668   0.01569   0.01267  Uiso   1.00
O36    O     0.86530   0.37600   0.93860   0.01267  Uiso   1.00
O37    O     0.22740   0.31882   0.99706   0.01267  Uiso   1.00
O38    O     0.37070   0.38954   0.05893   0.01267  Uiso   1.00
O39    O     0.40580   0.17079   0.74953   0.01267  Uiso   1.00
O40    O     0.55710   0.22873   0.68411   0.01267  Uiso   1.00
O41    O     0.74040   0.48431   0.80668   0.01267  Uiso   1.00
O42    O     0.61530   0.56140   0.87600   0.01267  Uiso   1.00
O43    O     0.72740   0.68118   0.00294   0.01267  Uiso   1.00
O44    O     0.87070   0.61046   0.94107   0.01267  Uiso   1.00
O45    O     0.90580   0.82921   0.25047   0.01267  Uiso   1.00
O46    O     0.05710   0.77127   0.31589   0.01267  Uiso   1.00
O47    O     0.24040   0.51569   0.19332   0.01267  Uiso   1.00
O48    O     0.11530   0.43860   0.12400   0.01267  Uiso   1.00
