data_image0
_cell_length_a       9.6349
_cell_length_b       26.235
_cell_length_c       28.821
_cell_angle_alpha    90
_cell_angle_beta     90
_cell_angle_gamma    90

_symmetry_space_group_name_H-M    "P 1"
_symmetry_int_tables_number       1

loop_
  _symmetry_equiv_pos_as_xyz
  'x, y, z'

loop_
  _atom_site_label
  _atom_site_occupancy
  _atom_site_fract_x
  _atom_site_fract_y
  _atom_site_fract_z
  _atom_site_thermal_displace_type
  _atom_site_B_iso_or_equiv
  _atom_site_type_symbol
  O1       1.0000 0.88480  0.55339  0.54889  Biso   1.000  O
  C1       1.0000 0.87750  0.65810  0.65690  Biso   1.000  C
  H1       1.0000 0.79350  0.66960  0.66890  Biso   1.000  H
  C2       1.0000 0.87790  0.62350  0.62110  Biso   1.000  C
  H2       1.0000 0.79400  0.61130  0.60970  Biso   1.000  H
  H3       1.0000 0.61470  0.47010  0.43690  Biso   1.000  H
  C3       1.0000 0.58050  0.45690  0.47410  Biso   1.000  C
  H4       1.0000 0.61400  0.42540  0.48780  Biso   1.000  H
  H5       1.0000 0.61400  0.45840  0.44240  Biso   1.000  H
  O2       1.0000 0.88480  0.05339  0.04889  Biso   1.000  O
  C4       1.0000 0.87750  0.15810  0.15690  Biso   1.000  C
  H6       1.0000 0.79350  0.16960  0.16890  Biso   1.000  H
  C5       1.0000 0.87790  0.12350  0.12110  Biso   1.000  C
  H7       1.0000 0.79400  0.11130  0.10970  Biso   1.000  H
  H8       1.0000 0.61470  0.97010  0.93690  Biso   1.000  H
  C6       1.0000 0.58050  0.95690  0.97410  Biso   1.000  C
  H9       1.0000 0.61400  0.92540  0.98780  Biso   1.000  H
  H10      1.0000 0.61400  0.95840  0.94240  Biso   1.000  H
  O3       1.0000 0.11520  0.44661  0.54889  Biso   1.000  O
  C7       1.0000 0.12250  0.34190  0.65690  Biso   1.000  C
  H11      1.0000 0.20650  0.33040  0.66890  Biso   1.000  H
  C8       1.0000 0.12210  0.37650  0.62110  Biso   1.000  C
  H12      1.0000 0.20600  0.38870  0.60970  Biso   1.000  H
  H13      1.0000 0.38530  0.52990  0.43690  Biso   1.000  H
  C9       1.0000 0.41950  0.54310  0.47410  Biso   1.000  C
  H14      1.0000 0.38600  0.57460  0.48780  Biso   1.000  H
  H15      1.0000 0.38600  0.54160  0.44240  Biso   1.000  H
  O4       1.0000 0.11520  0.94661  0.04889  Biso   1.000  O
  C10      1.0000 0.12250  0.84190  0.15690  Biso   1.000  C
  H16      1.0000 0.20650  0.83040  0.16890  Biso   1.000  H
  C11      1.0000 0.12210  0.87650  0.12110  Biso   1.000  C
  H17      1.0000 0.20600  0.88870  0.10970  Biso   1.000  H
  H18      1.0000 0.38530  0.02990  0.93690  Biso   1.000  H
  C12      1.0000 0.41950  0.04310  0.97410  Biso   1.000  C
  H19      1.0000 0.38600  0.07460  0.98780  Biso   1.000  H
  H20      1.0000 0.38600  0.04160  0.94240  Biso   1.000  H
  O5       1.0000 0.11520  0.55339  0.45111  Biso   1.000  O
  C13      1.0000 0.12250  0.65810  0.34310  Biso   1.000  C
  H21      1.0000 0.20650  0.66960  0.33110  Biso   1.000  H
  C14      1.0000 0.12210  0.62350  0.37890  Biso   1.000  C
  H22      1.0000 0.20600  0.61130  0.39030  Biso   1.000  H
  H23      1.0000 0.38530  0.47010  0.56310  Biso   1.000  H
  C15      1.0000 0.41950  0.45690  0.52590  Biso   1.000  C
  H24      1.0000 0.38600  0.42540  0.51220  Biso   1.000  H
  H25      1.0000 0.38600  0.45840  0.55760  Biso   1.000  H
  O6       1.0000 0.11520  0.05339  0.95111  Biso   1.000  O
  C16      1.0000 0.12250  0.15810  0.84310  Biso   1.000  C
  H26      1.0000 0.20650  0.16960  0.83110  Biso   1.000  H
  C17      1.0000 0.12210  0.12350  0.87890  Biso   1.000  C
  H27      1.0000 0.20600  0.11130  0.89030  Biso   1.000  H
  H28      1.0000 0.38530  0.97010  0.06310  Biso   1.000  H
  C18      1.0000 0.41950  0.95690  0.02590  Biso   1.000  C
  H29      1.0000 0.38600  0.92540  0.01220  Biso   1.000  H
  H30      1.0000 0.38600  0.95840  0.05760  Biso   1.000  H
  O7       1.0000 0.88480  0.44661  0.45111  Biso   1.000  O
  C19      1.0000 0.87750  0.34190  0.34310  Biso   1.000  C
  H31      1.0000 0.79350  0.33040  0.33110  Biso   1.000  H
  C20      1.0000 0.87790  0.37650  0.37890  Biso   1.000  C
  H32      1.0000 0.79400  0.38870  0.39030  Biso   1.000  H
  H33      1.0000 0.61470  0.52990  0.56310  Biso   1.000  H
  C21      1.0000 0.58050  0.54310  0.52590  Biso   1.000  C
  H34      1.0000 0.61400  0.57460  0.51220  Biso   1.000  H
  H35      1.0000 0.61400  0.54160  0.55760  Biso   1.000  H
  O8       1.0000 0.88480  0.94661  0.95111  Biso   1.000  O
  C22      1.0000 0.87750  0.84190  0.84310  Biso   1.000  C
  H36      1.0000 0.79350  0.83040  0.83110  Biso   1.000  H
  C23      1.0000 0.87790  0.87650  0.87890  Biso   1.000  C
  H37      1.0000 0.79400  0.88870  0.89030  Biso   1.000  H
  H38      1.0000 0.61470  0.02990  0.06310  Biso   1.000  H
  C24      1.0000 0.58050  0.04310  0.02590  Biso   1.000  C
  H39      1.0000 0.61400  0.07460  0.01220  Biso   1.000  H
  H40      1.0000 0.61400  0.04160  0.05760  Biso   1.000  H
  O9       1.0000 0.11520  0.44661  0.45111  Biso   1.000  O
  C25      1.0000 0.12250  0.34190  0.34310  Biso   1.000  C
  H41      1.0000 0.20650  0.33040  0.33110  Biso   1.000  H
  C26      1.0000 0.12210  0.37650  0.37890  Biso   1.000  C
  H42      1.0000 0.20600  0.38870  0.39030  Biso   1.000  H
  H43      1.0000 0.38530  0.52990  0.56310  Biso   1.000  H
  C27      1.0000 0.41950  0.54310  0.52590  Biso   1.000  C
  H44      1.0000 0.38600  0.57460  0.51220  Biso   1.000  H
  H45      1.0000 0.38600  0.54160  0.55760  Biso   1.000  H
  O10      1.0000 0.11520  0.94661  0.95111  Biso   1.000  O
  C28      1.0000 0.12250  0.84190  0.84310  Biso   1.000  C
  H46      1.0000 0.20650  0.83040  0.83110  Biso   1.000  H
  C29      1.0000 0.12210  0.87650  0.87890  Biso   1.000  C
  H47      1.0000 0.20600  0.88870  0.89030  Biso   1.000  H
  H48      1.0000 0.38530  0.02990  0.06310  Biso   1.000  H
  C30      1.0000 0.41950  0.04310  0.02590  Biso   1.000  C
  H49      1.0000 0.38600  0.07460  0.01220  Biso   1.000  H
  H50      1.0000 0.38600  0.04160  0.05760  Biso   1.000  H
  O11      1.0000 0.88480  0.55339  0.45111  Biso   1.000  O
  C31      1.0000 0.87750  0.65810  0.34310  Biso   1.000  C
  H51      1.0000 0.79350  0.66960  0.33110  Biso   1.000  H
  C32      1.0000 0.87790  0.62350  0.37890  Biso   1.000  C
  H52      1.0000 0.79400  0.61130  0.39030  Biso   1.000  H
  H53      1.0000 0.61470  0.47010  0.56310  Biso   1.000  H
  C33      1.0000 0.58050  0.45690  0.52590  Biso   1.000  C
  H54      1.0000 0.61400  0.42540  0.51220  Biso   1.000  H
  H55      1.0000 0.61400  0.45840  0.55760  Biso   1.000  H
  O12      1.0000 0.88480  0.05339  0.95111  Biso   1.000  O
  C34      1.0000 0.87750  0.15810  0.84310  Biso   1.000  C
  H56      1.0000 0.79350  0.16960  0.83110  Biso   1.000  H
  C35      1.0000 0.87790  0.12350  0.87890  Biso   1.000  C
  H57      1.0000 0.79400  0.11130  0.89030  Biso   1.000  H
  H58      1.0000 0.61470  0.97010  0.06310  Biso   1.000  H
  C36      1.0000 0.58050  0.95690  0.02590  Biso   1.000  C
  H59      1.0000 0.61400  0.92540  0.01220  Biso   1.000  H
  H60      1.0000 0.61400  0.95840  0.05760  Biso   1.000  H
  O13      1.0000 0.88480  0.44661  0.54889  Biso   1.000  O
  C37      1.0000 0.87750  0.34190  0.65690  Biso   1.000  C
  H61      1.0000 0.79350  0.33040  0.66890  Biso   1.000  H
  C38      1.0000 0.87790  0.37650  0.62110  Biso   1.000  C
  H62      1.0000 0.79400  0.38870  0.60970  Biso   1.000  H
  H63      1.0000 0.61470  0.52990  0.43690  Biso   1.000  H
  C39      1.0000 0.58050  0.54310  0.47410  Biso   1.000  C
  H64      1.0000 0.61400  0.57460  0.48780  Biso   1.000  H
  H65      1.0000 0.61400  0.54160  0.44240  Biso   1.000  H
  O14      1.0000 0.88480  0.94661  0.04889  Biso   1.000  O
  C40      1.0000 0.87750  0.84190  0.15690  Biso   1.000  C
  H66      1.0000 0.79350  0.83040  0.16890  Biso   1.000  H
  C41      1.0000 0.87790  0.87650  0.12110  Biso   1.000  C
  H67      1.0000 0.79400  0.88870  0.10970  Biso   1.000  H
  H68      1.0000 0.61470  0.02990  0.93690  Biso   1.000  H
  C42      1.0000 0.58050  0.04310  0.97410  Biso   1.000  C
  H69      1.0000 0.61400  0.07460  0.98780  Biso   1.000  H
  H70      1.0000 0.61400  0.04160  0.94240  Biso   1.000  H
  O15      1.0000 0.11520  0.55339  0.54889  Biso   1.000  O
  C43      1.0000 0.12250  0.65810  0.65690  Biso   1.000  C
  H71      1.0000 0.20650  0.66960  0.66890  Biso   1.000  H
  C44      1.0000 0.12210  0.62350  0.62110  Biso   1.000  C
  H72      1.0000 0.20600  0.61130  0.60970  Biso   1.000  H
  H73      1.0000 0.38530  0.47010  0.43690  Biso   1.000  H
  C45      1.0000 0.41950  0.45690  0.47410  Biso   1.000  C
  H74      1.0000 0.38600  0.42540  0.48780  Biso   1.000  H
  H75      1.0000 0.38600  0.45840  0.44240  Biso   1.000  H
  O16      1.0000 0.11520  0.05339  0.04889  Biso   1.000  O
  C46      1.0000 0.12250  0.15810  0.15690  Biso   1.000  C
  H76      1.0000 0.20650  0.16960  0.16890  Biso   1.000  H
  C47      1.0000 0.12210  0.12350  0.12110  Biso   1.000  C
  H77      1.0000 0.20600  0.11130  0.10970  Biso   1.000  H
  H78      1.0000 0.38530  0.97010  0.93690  Biso   1.000  H
  C48      1.0000 0.41950  0.95690  0.97410  Biso   1.000  C
  H79      1.0000 0.38600  0.92540  0.98780  Biso   1.000  H
  H80      1.0000 0.38600  0.95840  0.94240  Biso   1.000  H
  Zn1      1.0000 0.84745  0.50000  0.50000  Biso   1.000  Zn
  N1       1.0000 0.63470  0.50000  0.50000  Biso   1.000  N
  Zn2      1.0000 0.84745  0.00000  0.00000  Biso   1.000  Zn
  N2       1.0000 0.63470  0.00000  0.00000  Biso   1.000  N
  Zn3      1.0000 0.15255  0.50000  0.50000  Biso   1.000  Zn
  N3       1.0000 0.36530  0.50000  0.50000  Biso   1.000  N
  Zn4      1.0000 0.15255  0.00000  0.00000  Biso   1.000  Zn
  N4       1.0000 0.36530  0.00000  0.00000  Biso   1.000  N
  C49      1.0000 0.00000  0.71430  0.71420  Biso   1.000  C
  C50      1.0000 0.00000  0.56840  0.56370  Biso   1.000  C
  C51      1.0000 0.00000  0.60670  0.60170  Biso   1.000  C
  C52      1.0000 0.00000  0.83460  0.64630  Biso   1.000  C
  H81      1.0000 0.00000  0.84530  0.61550  Biso   1.000  H
  C53      1.0000 0.00000  0.76730  0.70280  Biso   1.000  C
  C54      1.0000 0.00000  0.78540  0.65690  Biso   1.000  C
  H82      1.0000 0.00000  0.76180  0.63280  Biso   1.000  H
  C55      1.0000 0.00000  0.67590  0.67510  Biso   1.000  C
  C56      1.0000 0.00000  0.69700  0.76070  Biso   1.000  C
  C57      1.0000 0.00000  0.87150  0.68410  Biso   1.000  C
  H83      1.0000 0.00000  0.90620  0.67750  Biso   1.000  H
  C58      1.0000 0.00000  0.64410  0.77240  Biso   1.000  C
  H84      1.0000 0.00000  0.62010  0.74870  Biso   1.000  H
  C59      1.0000 0.00000  0.21430  0.21420  Biso   1.000  C
  C60      1.0000 0.00000  0.06840  0.06370  Biso   1.000  C
  C61      1.0000 0.00000  0.10670  0.10170  Biso   1.000  C
  C62      1.0000 0.00000  0.33460  0.14630  Biso   1.000  C
  H85      1.0000 0.00000  0.34530  0.11550  Biso   1.000  H
  C63      1.0000 0.00000  0.26730  0.20280  Biso   1.000  C
  C64      1.0000 0.00000  0.28540  0.15690  Biso   1.000  C
  H86      1.0000 0.00000  0.26180  0.13280  Biso   1.000  H
  C65      1.0000 0.00000  0.17590  0.17510  Biso   1.000  C
  C66      1.0000 0.00000  0.19700  0.26070  Biso   1.000  C
  C67      1.0000 0.00000  0.37150  0.18410  Biso   1.000  C
  H87      1.0000 0.00000  0.40620  0.17750  Biso   1.000  H
  C68      1.0000 0.00000  0.14410  0.27240  Biso   1.000  C
  H88      1.0000 0.00000  0.12010  0.24870  Biso   1.000  H
  C69      1.0000 0.00000  0.28570  0.71420  Biso   1.000  C
  C70      1.0000 0.00000  0.43160  0.56370  Biso   1.000  C
  C71      1.0000 0.00000  0.39330  0.60170  Biso   1.000  C
  C72      1.0000 0.00000  0.16540  0.64630  Biso   1.000  C
  H89      1.0000 0.00000  0.15470  0.61550  Biso   1.000  H
  C73      1.0000 0.00000  0.23270  0.70280  Biso   1.000  C
  C74      1.0000 0.00000  0.21460  0.65690  Biso   1.000  C
  H90      1.0000 0.00000  0.23820  0.63280  Biso   1.000  H
  C75      1.0000 0.00000  0.32410  0.67510  Biso   1.000  C
  C76      1.0000 0.00000  0.30300  0.76070  Biso   1.000  C
  C77      1.0000 0.00000  0.12850  0.68410  Biso   1.000  C
  H91      1.0000 0.00000  0.09380  0.67750  Biso   1.000  H
  C78      1.0000 0.00000  0.35590  0.77240  Biso   1.000  C
  H92      1.0000 0.00000  0.37990  0.74870  Biso   1.000  H
  C79      1.0000 0.00000  0.78570  0.21420  Biso   1.000  C
  C80      1.0000 0.00000  0.93160  0.06370  Biso   1.000  C
  C81      1.0000 0.00000  0.89330  0.10170  Biso   1.000  C
  C82      1.0000 0.00000  0.66540  0.14630  Biso   1.000  C
  H93      1.0000 0.00000  0.65470  0.11550  Biso   1.000  H
  C83      1.0000 0.00000  0.73270  0.20280  Biso   1.000  C
  C84      1.0000 0.00000  0.71460  0.15690  Biso   1.000  C
  H94      1.0000 0.00000  0.73820  0.13280  Biso   1.000  H
  C85      1.0000 0.00000  0.82410  0.17510  Biso   1.000  C
  C86      1.0000 0.00000  0.80300  0.26070  Biso   1.000  C
  C87      1.0000 0.00000  0.62850  0.18410  Biso   1.000  C
  H95      1.0000 0.00000  0.59380  0.17750  Biso   1.000  H
  C88      1.0000 0.00000  0.85590  0.27240  Biso   1.000  C
  H96      1.0000 0.00000  0.87990  0.24870  Biso   1.000  H
  C89      1.0000 0.00000  0.71430  0.28580  Biso   1.000  C
  C90      1.0000 0.00000  0.56840  0.43630  Biso   1.000  C
  C91      1.0000 0.00000  0.60670  0.39830  Biso   1.000  C
  C92      1.0000 0.00000  0.83460  0.35370  Biso   1.000  C
  H97      1.0000 0.00000  0.84530  0.38450  Biso   1.000  H
  C93      1.0000 0.00000  0.76730  0.29720  Biso   1.000  C
  C94      1.0000 0.00000  0.78540  0.34310  Biso   1.000  C
  H98      1.0000 0.00000  0.76180  0.36720  Biso   1.000  H
  C95      1.0000 0.00000  0.67590  0.32490  Biso   1.000  C
  C96      1.0000 0.00000  0.69700  0.23930  Biso   1.000  C
  C97      1.0000 0.00000  0.87150  0.31590  Biso   1.000  C
  H99      1.0000 0.00000  0.90620  0.32250  Biso   1.000  H
  C98      1.0000 0.00000  0.64410  0.22760  Biso   1.000  C
  H100     1.0000 0.00000  0.62010  0.25130  Biso   1.000  H
  C99      1.0000 0.00000  0.21430  0.78580  Biso   1.000  C
  C100     1.0000 0.00000  0.06840  0.93630  Biso   1.000  C
  C101     1.0000 0.00000  0.10670  0.89830  Biso   1.000  C
  C102     1.0000 0.00000  0.33460  0.85370  Biso   1.000  C
  H101     1.0000 0.00000  0.34530  0.88450  Biso   1.000  H
  C103     1.0000 0.00000  0.26730  0.79720  Biso   1.000  C
  C104     1.0000 0.00000  0.28540  0.84310  Biso   1.000  C
  H102     1.0000 0.00000  0.26180  0.86720  Biso   1.000  H
  C105     1.0000 0.00000  0.17590  0.82490  Biso   1.000  C
  C106     1.0000 0.00000  0.19700  0.73930  Biso   1.000  C
  C107     1.0000 0.00000  0.37150  0.81590  Biso   1.000  C
  H103     1.0000 0.00000  0.40620  0.82250  Biso   1.000  H
  C108     1.0000 0.00000  0.14410  0.72760  Biso   1.000  C
  H104     1.0000 0.00000  0.12010  0.75130  Biso   1.000  H
  C109     1.0000 0.00000  0.28570  0.28580  Biso   1.000  C
  C110     1.0000 0.00000  0.43160  0.43630  Biso   1.000  C
  C111     1.0000 0.00000  0.39330  0.39830  Biso   1.000  C
  C112     1.0000 0.00000  0.16540  0.35370  Biso   1.000  C
  H105     1.0000 0.00000  0.15470  0.38450  Biso   1.000  H
  C113     1.0000 0.00000  0.23270  0.29720  Biso   1.000  C
  C114     1.0000 0.00000  0.21460  0.34310  Biso   1.000  C
  H106     1.0000 0.00000  0.23820  0.36720  Biso   1.000  H
  C115     1.0000 0.00000  0.32410  0.32490  Biso   1.000  C
  C116     1.0000 0.00000  0.30300  0.23930  Biso   1.000  C
  C117     1.0000 0.00000  0.12850  0.31590  Biso   1.000  C
  H107     1.0000 0.00000  0.09380  0.32250  Biso   1.000  H
  C118     1.0000 0.00000  0.35590  0.22760  Biso   1.000  C
  H108     1.0000 0.00000  0.37990  0.25130  Biso   1.000  H
  C119     1.0000 0.00000  0.78570  0.78580  Biso   1.000  C
  C120     1.0000 0.00000  0.93160  0.93630  Biso   1.000  C
  C121     1.0000 0.00000  0.89330  0.89830  Biso   1.000  C
  C122     1.0000 0.00000  0.66540  0.85370  Biso   1.000  C
  H109     1.0000 0.00000  0.65470  0.88450  Biso   1.000  H
  C123     1.0000 0.00000  0.73270  0.79720  Biso   1.000  C
  C124     1.0000 0.00000  0.71460  0.84310  Biso   1.000  C
  H110     1.0000 0.00000  0.73820  0.86720  Biso   1.000  H
  C125     1.0000 0.00000  0.82410  0.82490  Biso   1.000  C
  C126     1.0000 0.00000  0.80300  0.73930  Biso   1.000  C
  C127     1.0000 0.00000  0.62850  0.81590  Biso   1.000  C
  H111     1.0000 0.00000  0.59380  0.82250  Biso   1.000  H
  C128     1.0000 0.00000  0.85590  0.72760  Biso   1.000  C
  H112     1.0000 0.00000  0.87990  0.75130  Biso   1.000  H
  C129     1.0000 0.58110  0.50000  0.45320  Biso   1.000  C
  C130     1.0000 0.58110  0.00000  0.95320  Biso   1.000  C
  C131     1.0000 0.41890  0.50000  0.45320  Biso   1.000  C
  C132     1.0000 0.41890  0.00000  0.95320  Biso   1.000  C
  C133     1.0000 0.41890  0.50000  0.54680  Biso   1.000  C
  C134     1.0000 0.41890  0.00000  0.04680  Biso   1.000  C
  C135     1.0000 0.58110  0.50000  0.54680  Biso   1.000  C
  C136     1.0000 0.58110  0.00000  0.04680  Biso   1.000  C
  O17      1.0000 0.38480  0.55339  0.04889  Biso   1.000  O
  C137     1.0000 0.37750  0.65810  0.15690  Biso   1.000  C
  H113     1.0000 0.29350  0.66960  0.16890  Biso   1.000  H
  C138     1.0000 0.37790  0.62350  0.12110  Biso   1.000  C
  H114     1.0000 0.29400  0.61130  0.10970  Biso   1.000  H
  H115     1.0000 0.11470  0.47010  0.93690  Biso   1.000  H
  C139     1.0000 0.08050  0.45690  0.97410  Biso   1.000  C
  H116     1.0000 0.11400  0.42540  0.98780  Biso   1.000  H
  H117     1.0000 0.11400  0.45840  0.94240  Biso   1.000  H
  O18      1.0000 0.38480  0.05339  0.54889  Biso   1.000  O
  C140     1.0000 0.37750  0.15810  0.65690  Biso   1.000  C
  H118     1.0000 0.29350  0.16960  0.66890  Biso   1.000  H
  C141     1.0000 0.37790  0.12350  0.62110  Biso   1.000  C
  H119     1.0000 0.29400  0.11130  0.60970  Biso   1.000  H
  H120     1.0000 0.11470  0.97010  0.43690  Biso   1.000  H
  C142     1.0000 0.08050  0.95690  0.47410  Biso   1.000  C
  H121     1.0000 0.11400  0.92540  0.48780  Biso   1.000  H
  H122     1.0000 0.11400  0.95840  0.44240  Biso   1.000  H
  O19      1.0000 0.61520  0.44661  0.04889  Biso   1.000  O
  C143     1.0000 0.62250  0.34190  0.15690  Biso   1.000  C
  H123     1.0000 0.70650  0.33040  0.16890  Biso   1.000  H
  C144     1.0000 0.62210  0.37650  0.12110  Biso   1.000  C
  H124     1.0000 0.70600  0.38870  0.10970  Biso   1.000  H
  H125     1.0000 0.88530  0.52990  0.93690  Biso   1.000  H
  C145     1.0000 0.91950  0.54310  0.97410  Biso   1.000  C
  H126     1.0000 0.88600  0.57460  0.98780  Biso   1.000  H
  H127     1.0000 0.88600  0.54160  0.94240  Biso   1.000  H
  O20      1.0000 0.61520  0.94661  0.54889  Biso   1.000  O
  C146     1.0000 0.62250  0.84190  0.65690  Biso   1.000  C
  H128     1.0000 0.70650  0.83040  0.66890  Biso   1.000  H
  C147     1.0000 0.62210  0.87650  0.62110  Biso   1.000  C
  H129     1.0000 0.70600  0.88870  0.60970  Biso   1.000  H
  H130     1.0000 0.88530  0.02990  0.43690  Biso   1.000  H
  C148     1.0000 0.91950  0.04310  0.47410  Biso   1.000  C
  H131     1.0000 0.88600  0.07460  0.48780  Biso   1.000  H
  H132     1.0000 0.88600  0.04160  0.44240  Biso   1.000  H
  O21      1.0000 0.61520  0.55339  0.95111  Biso   1.000  O
  C149     1.0000 0.62250  0.65810  0.84310  Biso   1.000  C
  H133     1.0000 0.70650  0.66960  0.83110  Biso   1.000  H
  C150     1.0000 0.62210  0.62350  0.87890  Biso   1.000  C
  H134     1.0000 0.70600  0.61130  0.89030  Biso   1.000  H
  H135     1.0000 0.88530  0.47010  0.06310  Biso   1.000  H
  C151     1.0000 0.91950  0.45690  0.02590  Biso   1.000  C
  H136     1.0000 0.88600  0.42540  0.01220  Biso   1.000  H
  H137     1.0000 0.88600  0.45840  0.05760  Biso   1.000  H
  O22      1.0000 0.61520  0.05339  0.45111  Biso   1.000  O
  C152     1.0000 0.62250  0.15810  0.34310  Biso   1.000  C
  H138     1.0000 0.70650  0.16960  0.33110  Biso   1.000  H
  C153     1.0000 0.62210  0.12350  0.37890  Biso   1.000  C
  H139     1.0000 0.70600  0.11130  0.39030  Biso   1.000  H
  H140     1.0000 0.88530  0.97010  0.56310  Biso   1.000  H
  C154     1.0000 0.91950  0.95690  0.52590  Biso   1.000  C
  H141     1.0000 0.88600  0.92540  0.51220  Biso   1.000  H
  H142     1.0000 0.88600  0.95840  0.55760  Biso   1.000  H
  O23      1.0000 0.38480  0.44661  0.95111  Biso   1.000  O
  C155     1.0000 0.37750  0.34190  0.84310  Biso   1.000  C
  H143     1.0000 0.29350  0.33040  0.83110  Biso   1.000  H
  C156     1.0000 0.37790  0.37650  0.87890  Biso   1.000  C
  H144     1.0000 0.29400  0.38870  0.89030  Biso   1.000  H
  H145     1.0000 0.11470  0.52990  0.06310  Biso   1.000  H
  C157     1.0000 0.08050  0.54310  0.02590  Biso   1.000  C
  H146     1.0000 0.11400  0.57460  0.01220  Biso   1.000  H
  H147     1.0000 0.11400  0.54160  0.05760  Biso   1.000  H
  O24      1.0000 0.38480  0.94661  0.45111  Biso   1.000  O
  C158     1.0000 0.37750  0.84190  0.34310  Biso   1.000  C
  H148     1.0000 0.29350  0.83040  0.33110  Biso   1.000  H
  C159     1.0000 0.37790  0.87650  0.37890  Biso   1.000  C
  H149     1.0000 0.29400  0.88870  0.39030  Biso   1.000  H
  H150     1.0000 0.11470  0.02990  0.56310  Biso   1.000  H
  C160     1.0000 0.08050  0.04310  0.52590  Biso   1.000  C
  H151     1.0000 0.11400  0.07460  0.51220  Biso   1.000  H
  H152     1.0000 0.11400  0.04160  0.55760  Biso   1.000  H
  O25      1.0000 0.61520  0.44661  0.95111  Biso   1.000  O
  C161     1.0000 0.62250  0.34190  0.84310  Biso   1.000  C
  H153     1.0000 0.70650  0.33040  0.83110  Biso   1.000  H
  C162     1.0000 0.62210  0.37650  0.87890  Biso   1.000  C
  H154     1.0000 0.70600  0.38870  0.89030  Biso   1.000  H
  H155     1.0000 0.88530  0.52990  0.06310  Biso   1.000  H
  C163     1.0000 0.91950  0.54310  0.02590  Biso   1.000  C
  H156     1.0000 0.88600  0.57460  0.01220  Biso   1.000  H
  H157     1.0000 0.88600  0.54160  0.05760  Biso   1.000  H
  O26      1.0000 0.61520  0.94661  0.45111  Biso   1.000  O
  C164     1.0000 0.62250  0.84190  0.34310  Biso   1.000  C
  H158     1.0000 0.70650  0.83040  0.33110  Biso   1.000  H
  C165     1.0000 0.62210  0.87650  0.37890  Biso   1.000  C
  H159     1.0000 0.70600  0.88870  0.39030  Biso   1.000  H
  H160     1.0000 0.88530  0.02990  0.56310  Biso   1.000  H
  C166     1.0000 0.91950  0.04310  0.52590  Biso   1.000  C
  H161     1.0000 0.88600  0.07460  0.51220  Biso   1.000  H
  H162     1.0000 0.88600  0.04160  0.55760  Biso   1.000  H
  O27      1.0000 0.38480  0.55339  0.95111  Biso   1.000  O
  C167     1.0000 0.37750  0.65810  0.84310  Biso   1.000  C
  H163     1.0000 0.29350  0.66960  0.83110  Biso   1.000  H
  C168     1.0000 0.37790  0.62350  0.87890  Biso   1.000  C
  H164     1.0000 0.29400  0.61130  0.89030  Biso   1.000  H
  H165     1.0000 0.11470  0.47010  0.06310  Biso   1.000  H
  C169     1.0000 0.08050  0.45690  0.02590  Biso   1.000  C
  H166     1.0000 0.11400  0.42540  0.01220  Biso   1.000  H
  H167     1.0000 0.11400  0.45840  0.05760  Biso   1.000  H
  O28      1.0000 0.38480  0.05339  0.45111  Biso   1.000  O
  C170     1.0000 0.37750  0.15810  0.34310  Biso   1.000  C
  H168     1.0000 0.29350  0.16960  0.33110  Biso   1.000  H
  C171     1.0000 0.37790  0.12350  0.37890  Biso   1.000  C
  H169     1.0000 0.29400  0.11130  0.39030  Biso   1.000  H
  H170     1.0000 0.11470  0.97010  0.56310  Biso   1.000  H
  C172     1.0000 0.08050  0.95690  0.52590  Biso   1.000  C
  H171     1.0000 0.11400  0.92540  0.51220  Biso   1.000  H
  H172     1.0000 0.11400  0.95840  0.55760  Biso   1.000  H
  O29      1.0000 0.38480  0.44661  0.04889  Biso   1.000  O
  C173     1.0000 0.37750  0.34190  0.15690  Biso   1.000  C
  H173     1.0000 0.29350  0.33040  0.16890  Biso   1.000  H
  C174     1.0000 0.37790  0.37650  0.12110  Biso   1.000  C
  H174     1.0000 0.29400  0.38870  0.10970  Biso   1.000  H
  H175     1.0000 0.11470  0.52990  0.93690  Biso   1.000  H
  C175     1.0000 0.08050  0.54310  0.97410  Biso   1.000  C
  H176     1.0000 0.11400  0.57460  0.98780  Biso   1.000  H
  H177     1.0000 0.11400  0.54160  0.94240  Biso   1.000  H
  O30      1.0000 0.38480  0.94661  0.54889  Biso   1.000  O
  C176     1.0000 0.37750  0.84190  0.65690  Biso   1.000  C
  H178     1.0000 0.29350  0.83040  0.66890  Biso   1.000  H
  C177     1.0000 0.37790  0.87650  0.62110  Biso   1.000  C
  H179     1.0000 0.29400  0.88870  0.60970  Biso   1.000  H
  H180     1.0000 0.11470  0.02990  0.43690  Biso   1.000  H
  C178     1.0000 0.08050  0.04310  0.47410  Biso   1.000  C
  H181     1.0000 0.11400  0.07460  0.48780  Biso   1.000  H
  H182     1.0000 0.11400  0.04160  0.44240  Biso   1.000  H
  O31      1.0000 0.61520  0.55339  0.04889  Biso   1.000  O
  C179     1.0000 0.62250  0.65810  0.15690  Biso   1.000  C
  H183     1.0000 0.70650  0.66960  0.16890  Biso   1.000  H
  C180     1.0000 0.62210  0.62350  0.12110  Biso   1.000  C
  H184     1.0000 0.70600  0.61130  0.10970  Biso   1.000  H
  H185     1.0000 0.88530  0.47010  0.93690  Biso   1.000  H
  C181     1.0000 0.91950  0.45690  0.97410  Biso   1.000  C
  H186     1.0000 0.88600  0.42540  0.98780  Biso   1.000  H
  H187     1.0000 0.88600  0.45840  0.94240  Biso   1.000  H
  O32      1.0000 0.61520  0.05339  0.54889  Biso   1.000  O
  C182     1.0000 0.62250  0.15810  0.65690  Biso   1.000  C
  H188     1.0000 0.70650  0.16960  0.66890  Biso   1.000  H
  C183     1.0000 0.62210  0.12350  0.62110  Biso   1.000  C
  H189     1.0000 0.70600  0.11130  0.60970  Biso   1.000  H
  H190     1.0000 0.88530  0.97010  0.43690  Biso   1.000  H
  C184     1.0000 0.91950  0.95690  0.47410  Biso   1.000  C
  H191     1.0000 0.88600  0.92540  0.48780  Biso   1.000  H
  H192     1.0000 0.88600  0.95840  0.44240  Biso   1.000  H
  Zn5      1.0000 0.34745  0.50000  0.00000  Biso   1.000  Zn
  N5       1.0000 0.13470  0.50000  0.00000  Biso   1.000  N
  Zn6      1.0000 0.34745  0.00000  0.50000  Biso   1.000  Zn
  N6       1.0000 0.13470  0.00000  0.50000  Biso   1.000  N
  Zn7      1.0000 0.65255  0.50000  0.00000  Biso   1.000  Zn
  N7       1.0000 0.86530  0.50000  0.00000  Biso   1.000  N
  Zn8      1.0000 0.65255  0.00000  0.50000  Biso   1.000  Zn
  N8       1.0000 0.86530  0.00000  0.50000  Biso   1.000  N
  C185     1.0000 0.50000  0.71430  0.21420  Biso   1.000  C
  C186     1.0000 0.50000  0.56840  0.06370  Biso   1.000  C
  C187     1.0000 0.50000  0.60670  0.10170  Biso   1.000  C
  C188     1.0000 0.50000  0.83460  0.14630  Biso   1.000  C
  H193     1.0000 0.50000  0.84530  0.11550  Biso   1.000  H
  C189     1.0000 0.50000  0.76730  0.20280  Biso   1.000  C
  C190     1.0000 0.50000  0.78540  0.15690  Biso   1.000  C
  H194     1.0000 0.50000  0.76180  0.13280  Biso   1.000  H
  C191     1.0000 0.50000  0.67590  0.17510  Biso   1.000  C
  C192     1.0000 0.50000  0.69700  0.26070  Biso   1.000  C
  C193     1.0000 0.50000  0.87150  0.18410  Biso   1.000  C
  H195     1.0000 0.50000  0.90620  0.17750  Biso   1.000  H
  C194     1.0000 0.50000  0.64410  0.27240  Biso   1.000  C
  H196     1.0000 0.50000  0.62010  0.24870  Biso   1.000  H
  C195     1.0000 0.50000  0.21430  0.71420  Biso   1.000  C
  C196     1.0000 0.50000  0.06840  0.56370  Biso   1.000  C
  C197     1.0000 0.50000  0.10670  0.60170  Biso   1.000  C
  C198     1.0000 0.50000  0.33460  0.64630  Biso   1.000  C
  H197     1.0000 0.50000  0.34530  0.61550  Biso   1.000  H
  C199     1.0000 0.50000  0.26730  0.70280  Biso   1.000  C
  C200     1.0000 0.50000  0.28540  0.65690  Biso   1.000  C
  H198     1.0000 0.50000  0.26180  0.63280  Biso   1.000  H
  C201     1.0000 0.50000  0.17590  0.67510  Biso   1.000  C
  C202     1.0000 0.50000  0.19700  0.76070  Biso   1.000  C
  C203     1.0000 0.50000  0.37150  0.68410  Biso   1.000  C
  H199     1.0000 0.50000  0.40620  0.67750  Biso   1.000  H
  C204     1.0000 0.50000  0.14410  0.77240  Biso   1.000  C
  H200     1.0000 0.50000  0.12010  0.74870  Biso   1.000  H
  C205     1.0000 0.50000  0.28570  0.21420  Biso   1.000  C
  C206     1.0000 0.50000  0.43160  0.06370  Biso   1.000  C
  C207     1.0000 0.50000  0.39330  0.10170  Biso   1.000  C
  C208     1.0000 0.50000  0.16540  0.14630  Biso   1.000  C
  H201     1.0000 0.50000  0.15470  0.11550  Biso   1.000  H
  C209     1.0000 0.50000  0.23270  0.20280  Biso   1.000  C
  C210     1.0000 0.50000  0.21460  0.15690  Biso   1.000  C
  H202     1.0000 0.50000  0.23820  0.13280  Biso   1.000  H
  C211     1.0000 0.50000  0.32410  0.17510  Biso   1.000  C
  C212     1.0000 0.50000  0.30300  0.26070  Biso   1.000  C
  C213     1.0000 0.50000  0.12850  0.18410  Biso   1.000  C
  H203     1.0000 0.50000  0.09380  0.17750  Biso   1.000  H
  C214     1.0000 0.50000  0.35590  0.27240  Biso   1.000  C
  H204     1.0000 0.50000  0.37990  0.24870  Biso   1.000  H
  C215     1.0000 0.50000  0.78570  0.71420  Biso   1.000  C
  C216     1.0000 0.50000  0.93160  0.56370  Biso   1.000  C
  C217     1.0000 0.50000  0.89330  0.60170  Biso   1.000  C
  C218     1.0000 0.50000  0.66540  0.64630  Biso   1.000  C
  H205     1.0000 0.50000  0.65470  0.61550  Biso   1.000  H
  C219     1.0000 0.50000  0.73270  0.70280  Biso   1.000  C
  C220     1.0000 0.50000  0.71460  0.65690  Biso   1.000  C
  H206     1.0000 0.50000  0.73820  0.63280  Biso   1.000  H
  C221     1.0000 0.50000  0.82410  0.67510  Biso   1.000  C
  C222     1.0000 0.50000  0.80300  0.76070  Biso   1.000  C
  C223     1.0000 0.50000  0.62850  0.68410  Biso   1.000  C
  H207     1.0000 0.50000  0.59380  0.67750  Biso   1.000  H
  C224     1.0000 0.50000  0.85590  0.77240  Biso   1.000  C
  H208     1.0000 0.50000  0.87990  0.74870  Biso   1.000  H
  C225     1.0000 0.50000  0.71430  0.78580  Biso   1.000  C
  C226     1.0000 0.50000  0.56840  0.93630  Biso   1.000  C
  C227     1.0000 0.50000  0.60670  0.89830  Biso   1.000  C
  C228     1.0000 0.50000  0.83460  0.85370  Biso   1.000  C
  H209     1.0000 0.50000  0.84530  0.88450  Biso   1.000  H
  C229     1.0000 0.50000  0.76730  0.79720  Biso   1.000  C
  C230     1.0000 0.50000  0.78540  0.84310  Biso   1.000  C
  H210     1.0000 0.50000  0.76180  0.86720  Biso   1.000  H
  C231     1.0000 0.50000  0.67590  0.82490  Biso   1.000  C
  C232     1.0000 0.50000  0.69700  0.73930  Biso   1.000  C
  C233     1.0000 0.50000  0.87150  0.81590  Biso   1.000  C
  H211     1.0000 0.50000  0.90620  0.82250  Biso   1.000  H
  C234     1.0000 0.50000  0.64410  0.72760  Biso   1.000  C
  H212     1.0000 0.50000  0.62010  0.75130  Biso   1.000  H
  C235     1.0000 0.50000  0.21430  0.28580  Biso   1.000  C
  C236     1.0000 0.50000  0.06840  0.43630  Biso   1.000  C
  C237     1.0000 0.50000  0.10670  0.39830  Biso   1.000  C
  C238     1.0000 0.50000  0.33460  0.35370  Biso   1.000  C
  H213     1.0000 0.50000  0.34530  0.38450  Biso   1.000  H
  C239     1.0000 0.50000  0.26730  0.29720  Biso   1.000  C
  C240     1.0000 0.50000  0.28540  0.34310  Biso   1.000  C
  H214     1.0000 0.50000  0.26180  0.36720  Biso   1.000  H
  C241     1.0000 0.50000  0.17590  0.32490  Biso   1.000  C
  C242     1.0000 0.50000  0.19700  0.23930  Biso   1.000  C
  C243     1.0000 0.50000  0.37150  0.31590  Biso   1.000  C
  H215     1.0000 0.50000  0.40620  0.32250  Biso   1.000  H
  C244     1.0000 0.50000  0.14410  0.22760  Biso   1.000  C
  H216     1.0000 0.50000  0.12010  0.25130  Biso   1.000  H
  C245     1.0000 0.50000  0.28570  0.78580  Biso   1.000  C
  C246     1.0000 0.50000  0.43160  0.93630  Biso   1.000  C
  C247     1.0000 0.50000  0.39330  0.89830  Biso   1.000  C
  C248     1.0000 0.50000  0.16540  0.85370  Biso   1.000  C
  H217     1.0000 0.50000  0.15470  0.88450  Biso   1.000  H
  C249     1.0000 0.50000  0.23270  0.79720  Biso   1.000  C
  C250     1.0000 0.50000  0.21460  0.84310  Biso   1.000  C
  H218     1.0000 0.50000  0.23820  0.86720  Biso   1.000  H
  C251     1.0000 0.50000  0.32410  0.82490  Biso   1.000  C
  C252     1.0000 0.50000  0.30300  0.73930  Biso   1.000  C
  C253     1.0000 0.50000  0.12850  0.81590  Biso   1.000  C
  H219     1.0000 0.50000  0.09380  0.82250  Biso   1.000  H
  C254     1.0000 0.50000  0.35590  0.72760  Biso   1.000  C
  H220     1.0000 0.50000  0.37990  0.75130  Biso   1.000  H
  C255     1.0000 0.50000  0.78570  0.28580  Biso   1.000  C
  C256     1.0000 0.50000  0.93160  0.43630  Biso   1.000  C
  C257     1.0000 0.50000  0.89330  0.39830  Biso   1.000  C
  C258     1.0000 0.50000  0.66540  0.35370  Biso   1.000  C
  H221     1.0000 0.50000  0.65470  0.38450  Biso   1.000  H
  C259     1.0000 0.50000  0.73270  0.29720  Biso   1.000  C
  C260     1.0000 0.50000  0.71460  0.34310  Biso   1.000  C
  H222     1.0000 0.50000  0.73820  0.36720  Biso   1.000  H
  C261     1.0000 0.50000  0.82410  0.32490  Biso   1.000  C
  C262     1.0000 0.50000  0.80300  0.23930  Biso   1.000  C
  C263     1.0000 0.50000  0.62850  0.31590  Biso   1.000  C
  H223     1.0000 0.50000  0.59380  0.32250  Biso   1.000  H
  C264     1.0000 0.50000  0.85590  0.22760  Biso   1.000  C
  H224     1.0000 0.50000  0.87990  0.25130  Biso   1.000  H
  C265     1.0000 0.08110  0.50000  0.95320  Biso   1.000  C
  C266     1.0000 0.08110  0.00000  0.45320  Biso   1.000  C
  C267     1.0000 0.91890  0.50000  0.95320  Biso   1.000  C
  C268     1.0000 0.91890  0.00000  0.45320  Biso   1.000  C
  C269     1.0000 0.91890  0.50000  0.04680  Biso   1.000  C
  C270     1.0000 0.91890  0.00000  0.54680  Biso   1.000  C
  C271     1.0000 0.08110  0.50000  0.04680  Biso   1.000  C
  C272     1.0000 0.08110  0.00000  0.54680  Biso   1.000  C
