data_image0
_cell_length_a       14.8175
_cell_length_b       25.123
_cell_length_c       16.457
_cell_angle_alpha    90
_cell_angle_beta     112.148
_cell_angle_gamma    90

_symmetry_space_group_name_H-M    "P 1"
_symmetry_int_tables_number       1

loop_
  _symmetry_equiv_pos_as_xyz
  'x, y, z'

loop_
  _atom_site_label
  _atom_site_occupancy
  _atom_site_fract_x
  _atom_site_fract_y
  _atom_site_fract_z
  _atom_site_thermal_displace_type
  _atom_site_B_iso_or_equiv
  _atom_site_type_symbol
  Zn1      1.0000 0.41851  0.00465  0.14014  Biso   1.000  Zn
  O1       1.0000 0.47337  0.93037  0.13784  Biso   1.000  O
  O2       1.0000 0.33285  0.93285  0.14934  Biso   1.000  O
  O3       1.0000 0.39200  0.68299  0.13684  Biso   1.000  O
  O4       1.0000 0.13532  0.54677  0.28887  Biso   1.000  O
  O5       1.0000 0.03459  0.54807  0.14873  Biso   1.000  O
  N1       1.0000 0.33347  0.02187  0.01230  Biso   1.000  N
  N2       1.0000 0.09644  0.02768  0.69506  Biso   1.000  N
  C1       1.0000 0.23977  0.00661  0.97366  Biso   1.000  C
  H1       1.0000 0.21000  0.99060  0.00800  Biso   1.000  H
  C2       1.0000 0.18676  0.01361  0.88670  Biso   1.000  C
  H2       1.0000 0.12220  0.00240  0.86260  Biso   1.000  H
  C3       1.0000 0.22955  0.03755  0.83416  Biso   1.000  C
  C4       1.0000 0.32512  0.05385  0.87383  Biso   1.000  C
  H3       1.0000 0.35590  0.07080  0.84110  Biso   1.000  H
  C5       1.0000 0.37473  0.04501  0.96201  Biso   1.000  C
  H4       1.0000 0.43950  0.05560  0.98750  Biso   1.000  H
  C6       1.0000 0.18100  0.04474  0.73897  Biso   1.000  C
  H5       1.0000 0.21430  0.06280  0.70950  Biso   1.000  H
  C7       1.0000 0.06511  0.08766  0.57085  Biso   1.000  C
  H6       1.0000 0.09130  0.11580  0.60930  Biso   1.000  H
  C8       1.0000 0.06064  0.03825  0.60341  Biso   1.000  C
  C9       1.0000 0.01745  0.99525  0.54596  Biso   1.000  C
  C10      1.0000 0.00906  0.94384  0.57664  Biso   1.000  C
  H7       1.0000 0.03110  0.93750  0.63670  Biso   1.000  H
  C11      1.0000 0.96930  0.90349  0.51984  Biso   1.000  C
  H8       1.0000 0.96480  0.86970  0.54110  Biso   1.000  H
  C12      1.0000 0.40165  0.90657  0.14397  Biso   1.000  C
  C13      1.0000 0.39850  0.84754  0.14345  Biso   1.000  C
  C14      1.0000 0.46926  0.81799  0.12912  Biso   1.000  C
  H9       1.0000 0.52050  0.83530  0.12060  Biso   1.000  H
  C15      1.0000 0.46550  0.76341  0.12722  Biso   1.000  C
  H10      1.0000 0.51410  0.74390  0.11800  Biso   1.000  H
  C16      1.0000 0.38921  0.73755  0.13914  Biso   1.000  C
  C17      1.0000 0.31770  0.76631  0.15338  Biso   1.000  C
  H11      1.0000 0.26630  0.74910  0.16170  Biso   1.000  H
  C18      1.0000 0.32320  0.82096  0.15508  Biso   1.000  C
  H12      1.0000 0.27460  0.84050  0.16440  Biso   1.000  H
  C19      1.0000 0.32025  0.65431  0.15501  Biso   1.000  C
  C20      1.0000 0.33886  0.63860  0.23867  Biso   1.000  C
  H13      1.0000 0.39680  0.64820  0.28370  Biso   1.000  H
  C21      1.0000 0.27072  0.60821  0.25599  Biso   1.000  C
  H14      1.0000 0.28340  0.59730  0.31330  Biso   1.000  H
  C22      1.0000 0.18456  0.59369  0.19052  Biso   1.000  C
  C23      1.0000 0.16882  0.60987  0.10620  Biso   1.000  C
  H15      1.0000 0.11140  0.60020  0.06050  Biso   1.000  H
  C24      1.0000 0.23710  0.64024  0.08855  Biso   1.000  C
  H16      1.0000 0.22580  0.65090  0.03140  Biso   1.000  H
  C25      1.0000 0.11191  0.56011  0.20994  Biso   1.000  C
  Zn2      1.0000 0.91851  0.50465  0.14014  Biso   1.000  Zn
  O6       1.0000 0.97337  0.43037  0.13784  Biso   1.000  O
  O7       1.0000 0.83285  0.43285  0.14934  Biso   1.000  O
  O8       1.0000 0.89200  0.18299  0.13684  Biso   1.000  O
  O9       1.0000 0.63532  0.04677  0.28887  Biso   1.000  O
  O10      1.0000 0.53459  0.04807  0.14873  Biso   1.000  O
  N3       1.0000 0.83347  0.52187  0.01230  Biso   1.000  N
  N4       1.0000 0.59644  0.52768  0.69506  Biso   1.000  N
  C26      1.0000 0.73977  0.50661  0.97366  Biso   1.000  C
  H17      1.0000 0.71000  0.49060  0.00800  Biso   1.000  H
  C27      1.0000 0.68676  0.51361  0.88670  Biso   1.000  C
  H18      1.0000 0.62220  0.50240  0.86260  Biso   1.000  H
  C28      1.0000 0.72955  0.53755  0.83416  Biso   1.000  C
  C29      1.0000 0.82512  0.55385  0.87383  Biso   1.000  C
  H19      1.0000 0.85590  0.57080  0.84110  Biso   1.000  H
  C30      1.0000 0.87473  0.54501  0.96201  Biso   1.000  C
  H20      1.0000 0.93950  0.55560  0.98750  Biso   1.000  H
  C31      1.0000 0.68100  0.54474  0.73897  Biso   1.000  C
  H21      1.0000 0.71430  0.56280  0.70950  Biso   1.000  H
  C32      1.0000 0.56511  0.58766  0.57085  Biso   1.000  C
  H22      1.0000 0.59130  0.61580  0.60930  Biso   1.000  H
  C33      1.0000 0.56064  0.53825  0.60341  Biso   1.000  C
  C34      1.0000 0.51745  0.49525  0.54596  Biso   1.000  C
  C35      1.0000 0.50906  0.44384  0.57664  Biso   1.000  C
  H23      1.0000 0.53110  0.43750  0.63670  Biso   1.000  H
  C36      1.0000 0.46930  0.40349  0.51984  Biso   1.000  C
  H24      1.0000 0.46480  0.36970  0.54110  Biso   1.000  H
  C37      1.0000 0.90165  0.40657  0.14397  Biso   1.000  C
  C38      1.0000 0.89850  0.34754  0.14345  Biso   1.000  C
  C39      1.0000 0.96926  0.31799  0.12912  Biso   1.000  C
  H25      1.0000 0.02050  0.33530  0.12060  Biso   1.000  H
  C40      1.0000 0.96550  0.26341  0.12722  Biso   1.000  C
  H26      1.0000 0.01410  0.24390  0.11800  Biso   1.000  H
  C41      1.0000 0.88921  0.23755  0.13914  Biso   1.000  C
  C42      1.0000 0.81770  0.26631  0.15338  Biso   1.000  C
  H27      1.0000 0.76630  0.24910  0.16170  Biso   1.000  H
  C43      1.0000 0.82320  0.32096  0.15508  Biso   1.000  C
  H28      1.0000 0.77460  0.34050  0.16440  Biso   1.000  H
  C44      1.0000 0.82025  0.15431  0.15501  Biso   1.000  C
  C45      1.0000 0.83886  0.13860  0.23867  Biso   1.000  C
  H29      1.0000 0.89680  0.14820  0.28370  Biso   1.000  H
  C46      1.0000 0.77072  0.10821  0.25599  Biso   1.000  C
  H30      1.0000 0.78340  0.09730  0.31330  Biso   1.000  H
  C47      1.0000 0.68456  0.09369  0.19052  Biso   1.000  C
  C48      1.0000 0.66882  0.10987  0.10620  Biso   1.000  C
  H31      1.0000 0.61140  0.10020  0.06050  Biso   1.000  H
  C49      1.0000 0.73710  0.14024  0.08855  Biso   1.000  C
  H32      1.0000 0.72580  0.15090  0.03140  Biso   1.000  H
  C50      1.0000 0.61191  0.06011  0.20994  Biso   1.000  C
  Zn3      1.0000 0.58149  0.00465  0.35986  Biso   1.000  Zn
  O11      1.0000 0.52663  0.93037  0.36216  Biso   1.000  O
  O12      1.0000 0.66715  0.93285  0.35066  Biso   1.000  O
  O13      1.0000 0.60800  0.68299  0.36316  Biso   1.000  O
  O14      1.0000 0.86468  0.54677  0.21113  Biso   1.000  O
  O15      1.0000 0.96541  0.54807  0.35127  Biso   1.000  O
  N5       1.0000 0.66653  0.02187  0.48770  Biso   1.000  N
  N6       1.0000 0.90356  0.02768  0.80494  Biso   1.000  N
  C51      1.0000 0.76023  0.00661  0.52634  Biso   1.000  C
  H33      1.0000 0.79000  0.99060  0.49200  Biso   1.000  H
  C52      1.0000 0.81324  0.01361  0.61330  Biso   1.000  C
  H34      1.0000 0.87780  0.00240  0.63740  Biso   1.000  H
  C53      1.0000 0.77045  0.03755  0.66584  Biso   1.000  C
  C54      1.0000 0.67488  0.05385  0.62617  Biso   1.000  C
  H35      1.0000 0.64410  0.07080  0.65890  Biso   1.000  H
  C55      1.0000 0.62527  0.04501  0.53799  Biso   1.000  C
  H36      1.0000 0.56050  0.05560  0.51250  Biso   1.000  H
  C56      1.0000 0.81900  0.04474  0.76103  Biso   1.000  C
  H37      1.0000 0.78570  0.06280  0.79050  Biso   1.000  H
  C57      1.0000 0.93489  0.08766  0.92915  Biso   1.000  C
  H38      1.0000 0.90870  0.11580  0.89070  Biso   1.000  H
  C58      1.0000 0.93936  0.03825  0.89659  Biso   1.000  C
  C59      1.0000 0.98255  0.99525  0.95404  Biso   1.000  C
  C60      1.0000 0.99094  0.94384  0.92336  Biso   1.000  C
  H39      1.0000 0.96890  0.93750  0.86330  Biso   1.000  H
  C61      1.0000 0.03070  0.90349  0.98016  Biso   1.000  C
  H40      1.0000 0.03520  0.86970  0.95890  Biso   1.000  H
  C62      1.0000 0.59835  0.90657  0.35603  Biso   1.000  C
  C63      1.0000 0.60150  0.84754  0.35655  Biso   1.000  C
  C64      1.0000 0.53074  0.81799  0.37088  Biso   1.000  C
  H41      1.0000 0.47950  0.83530  0.37940  Biso   1.000  H
  C65      1.0000 0.53450  0.76341  0.37278  Biso   1.000  C
  H42      1.0000 0.48590  0.74390  0.38200  Biso   1.000  H
  C66      1.0000 0.61079  0.73755  0.36086  Biso   1.000  C
  C67      1.0000 0.68230  0.76631  0.34662  Biso   1.000  C
  H43      1.0000 0.73370  0.74910  0.33830  Biso   1.000  H
  C68      1.0000 0.67680  0.82096  0.34492  Biso   1.000  C
  H44      1.0000 0.72540  0.84050  0.33560  Biso   1.000  H
  C69      1.0000 0.67975  0.65431  0.34499  Biso   1.000  C
  C70      1.0000 0.66114  0.63860  0.26133  Biso   1.000  C
  H45      1.0000 0.60320  0.64820  0.21630  Biso   1.000  H
  C71      1.0000 0.72928  0.60821  0.24401  Biso   1.000  C
  H46      1.0000 0.71660  0.59730  0.18670  Biso   1.000  H
  C72      1.0000 0.81544  0.59369  0.30948  Biso   1.000  C
  C73      1.0000 0.83118  0.60987  0.39380  Biso   1.000  C
  H47      1.0000 0.88860  0.60020  0.43950  Biso   1.000  H
  C74      1.0000 0.76290  0.64024  0.41145  Biso   1.000  C
  H48      1.0000 0.77420  0.65090  0.46860  Biso   1.000  H
  C75      1.0000 0.88809  0.56011  0.29006  Biso   1.000  C
  Zn4      1.0000 0.08149  0.50465  0.35986  Biso   1.000  Zn
  O16      1.0000 0.02663  0.43037  0.36216  Biso   1.000  O
  O17      1.0000 0.16715  0.43285  0.35066  Biso   1.000  O
  O18      1.0000 0.10800  0.18299  0.36316  Biso   1.000  O
  O19      1.0000 0.36468  0.04677  0.21113  Biso   1.000  O
  O20      1.0000 0.46541  0.04807  0.35127  Biso   1.000  O
  N7       1.0000 0.16653  0.52187  0.48770  Biso   1.000  N
  N8       1.0000 0.40356  0.52768  0.80494  Biso   1.000  N
  C76      1.0000 0.26023  0.50661  0.52634  Biso   1.000  C
  H49      1.0000 0.29000  0.49060  0.49200  Biso   1.000  H
  C77      1.0000 0.31324  0.51361  0.61330  Biso   1.000  C
  H50      1.0000 0.37780  0.50240  0.63740  Biso   1.000  H
  C78      1.0000 0.27045  0.53755  0.66584  Biso   1.000  C
  C79      1.0000 0.17488  0.55385  0.62617  Biso   1.000  C
  H51      1.0000 0.14410  0.57080  0.65890  Biso   1.000  H
  C80      1.0000 0.12527  0.54501  0.53799  Biso   1.000  C
  H52      1.0000 0.06050  0.55560  0.51250  Biso   1.000  H
  C81      1.0000 0.31900  0.54474  0.76103  Biso   1.000  C
  H53      1.0000 0.28570  0.56280  0.79050  Biso   1.000  H
  C82      1.0000 0.43489  0.58766  0.92915  Biso   1.000  C
  H54      1.0000 0.40870  0.61580  0.89070  Biso   1.000  H
  C83      1.0000 0.43936  0.53825  0.89659  Biso   1.000  C
  C84      1.0000 0.48255  0.49525  0.95404  Biso   1.000  C
  C85      1.0000 0.49094  0.44384  0.92336  Biso   1.000  C
  H55      1.0000 0.46890  0.43750  0.86330  Biso   1.000  H
  C86      1.0000 0.53070  0.40349  0.98016  Biso   1.000  C
  H56      1.0000 0.53520  0.36970  0.95890  Biso   1.000  H
  C87      1.0000 0.09835  0.40657  0.35603  Biso   1.000  C
  C88      1.0000 0.10150  0.34754  0.35655  Biso   1.000  C
  C89      1.0000 0.03074  0.31799  0.37088  Biso   1.000  C
  H57      1.0000 0.97950  0.33530  0.37940  Biso   1.000  H
  C90      1.0000 0.03450  0.26341  0.37278  Biso   1.000  C
  H58      1.0000 0.98590  0.24390  0.38200  Biso   1.000  H
  C91      1.0000 0.11079  0.23755  0.36086  Biso   1.000  C
  C92      1.0000 0.18230  0.26631  0.34662  Biso   1.000  C
  H59      1.0000 0.23370  0.24910  0.33830  Biso   1.000  H
  C93      1.0000 0.17680  0.32096  0.34492  Biso   1.000  C
  H60      1.0000 0.22540  0.34050  0.33560  Biso   1.000  H
  C94      1.0000 0.17975  0.15431  0.34499  Biso   1.000  C
  C95      1.0000 0.16114  0.13860  0.26133  Biso   1.000  C
  H61      1.0000 0.10320  0.14820  0.21630  Biso   1.000  H
  C96      1.0000 0.22928  0.10821  0.24401  Biso   1.000  C
  H62      1.0000 0.21660  0.09730  0.18670  Biso   1.000  H
  C97      1.0000 0.31544  0.09369  0.30948  Biso   1.000  C
  C98      1.0000 0.33118  0.10987  0.39380  Biso   1.000  C
  H63      1.0000 0.38860  0.10020  0.43950  Biso   1.000  H
  C99      1.0000 0.26290  0.14024  0.41145  Biso   1.000  C
  H64      1.0000 0.27420  0.15090  0.46860  Biso   1.000  H
  C100     1.0000 0.38809  0.06011  0.29006  Biso   1.000  C
  Zn5      1.0000 0.58149  0.99535  0.85986  Biso   1.000  Zn
  O21      1.0000 0.52663  0.06963  0.86216  Biso   1.000  O
  O22      1.0000 0.66715  0.06715  0.85066  Biso   1.000  O
  O23      1.0000 0.60800  0.31701  0.86316  Biso   1.000  O
  O24      1.0000 0.86468  0.45323  0.71113  Biso   1.000  O
  O25      1.0000 0.96541  0.45193  0.85127  Biso   1.000  O
  N9       1.0000 0.66653  0.97813  0.98770  Biso   1.000  N
  N10      1.0000 0.90356  0.97232  0.30494  Biso   1.000  N
  C101     1.0000 0.76023  0.99339  0.02634  Biso   1.000  C
  H65      1.0000 0.79000  0.00940  0.99200  Biso   1.000  H
  C102     1.0000 0.81324  0.98639  0.11330  Biso   1.000  C
  H66      1.0000 0.87780  0.99760  0.13740  Biso   1.000  H
  C103     1.0000 0.77045  0.96245  0.16584  Biso   1.000  C
  C104     1.0000 0.67488  0.94615  0.12617  Biso   1.000  C
  H67      1.0000 0.64410  0.92920  0.15890  Biso   1.000  H
  C105     1.0000 0.62527  0.95499  0.03799  Biso   1.000  C
  H68      1.0000 0.56050  0.94440  0.01250  Biso   1.000  H
  C106     1.0000 0.81900  0.95526  0.26103  Biso   1.000  C
  H69      1.0000 0.78570  0.93720  0.29050  Biso   1.000  H
  C107     1.0000 0.93489  0.91234  0.42915  Biso   1.000  C
  H70      1.0000 0.90870  0.88420  0.39070  Biso   1.000  H
  C108     1.0000 0.93936  0.96175  0.39659  Biso   1.000  C
  C109     1.0000 0.98255  0.00475  0.45404  Biso   1.000  C
  C110     1.0000 0.99094  0.05616  0.42336  Biso   1.000  C
  H71      1.0000 0.96890  0.06250  0.36330  Biso   1.000  H
  C111     1.0000 0.03070  0.09651  0.48016  Biso   1.000  C
  H72      1.0000 0.03520  0.13030  0.45890  Biso   1.000  H
  C112     1.0000 0.59835  0.09343  0.85603  Biso   1.000  C
  C113     1.0000 0.60150  0.15246  0.85655  Biso   1.000  C
  C114     1.0000 0.53074  0.18201  0.87088  Biso   1.000  C
  H73      1.0000 0.47950  0.16470  0.87940  Biso   1.000  H
  C115     1.0000 0.53450  0.23659  0.87278  Biso   1.000  C
  H74      1.0000 0.48590  0.25610  0.88200  Biso   1.000  H
  C116     1.0000 0.61079  0.26245  0.86086  Biso   1.000  C
  C117     1.0000 0.68230  0.23369  0.84662  Biso   1.000  C
  H75      1.0000 0.73370  0.25090  0.83830  Biso   1.000  H
  C118     1.0000 0.67680  0.17904  0.84492  Biso   1.000  C
  H76      1.0000 0.72540  0.15950  0.83560  Biso   1.000  H
  C119     1.0000 0.67975  0.34569  0.84499  Biso   1.000  C
  C120     1.0000 0.66114  0.36140  0.76133  Biso   1.000  C
  H77      1.0000 0.60320  0.35180  0.71630  Biso   1.000  H
  C121     1.0000 0.72928  0.39179  0.74401  Biso   1.000  C
  H78      1.0000 0.71660  0.40270  0.68670  Biso   1.000  H
  C122     1.0000 0.81544  0.40631  0.80948  Biso   1.000  C
  C123     1.0000 0.83118  0.39013  0.89380  Biso   1.000  C
  H79      1.0000 0.88860  0.39980  0.93950  Biso   1.000  H
  C124     1.0000 0.76290  0.35976  0.91145  Biso   1.000  C
  H80      1.0000 0.77420  0.34910  0.96860  Biso   1.000  H
  C125     1.0000 0.88809  0.43989  0.79006  Biso   1.000  C
  Zn6      1.0000 0.08149  0.49535  0.85986  Biso   1.000  Zn
  O26      1.0000 0.02663  0.56963  0.86216  Biso   1.000  O
  O27      1.0000 0.16715  0.56715  0.85066  Biso   1.000  O
  O28      1.0000 0.10800  0.81701  0.86316  Biso   1.000  O
  O29      1.0000 0.36468  0.95323  0.71113  Biso   1.000  O
  O30      1.0000 0.46541  0.95193  0.85127  Biso   1.000  O
  N11      1.0000 0.16653  0.47813  0.98770  Biso   1.000  N
  N12      1.0000 0.40356  0.47232  0.30494  Biso   1.000  N
  C126     1.0000 0.26023  0.49339  0.02634  Biso   1.000  C
  H81      1.0000 0.29000  0.50940  0.99200  Biso   1.000  H
  C127     1.0000 0.31324  0.48639  0.11330  Biso   1.000  C
  H82      1.0000 0.37780  0.49760  0.13740  Biso   1.000  H
  C128     1.0000 0.27045  0.46245  0.16584  Biso   1.000  C
  C129     1.0000 0.17488  0.44615  0.12617  Biso   1.000  C
  H83      1.0000 0.14410  0.42920  0.15890  Biso   1.000  H
  C130     1.0000 0.12527  0.45499  0.03799  Biso   1.000  C
  H84      1.0000 0.06050  0.44440  0.01250  Biso   1.000  H
  C131     1.0000 0.31900  0.45526  0.26103  Biso   1.000  C
  H85      1.0000 0.28570  0.43720  0.29050  Biso   1.000  H
  C132     1.0000 0.43489  0.41234  0.42915  Biso   1.000  C
  H86      1.0000 0.40870  0.38420  0.39070  Biso   1.000  H
  C133     1.0000 0.43936  0.46175  0.39659  Biso   1.000  C
  C134     1.0000 0.48255  0.50475  0.45404  Biso   1.000  C
  C135     1.0000 0.49094  0.55616  0.42336  Biso   1.000  C
  H87      1.0000 0.46890  0.56250  0.36330  Biso   1.000  H
  C136     1.0000 0.53070  0.59651  0.48016  Biso   1.000  C
  H88      1.0000 0.53520  0.63030  0.45890  Biso   1.000  H
  C137     1.0000 0.09835  0.59343  0.85603  Biso   1.000  C
  C138     1.0000 0.10150  0.65246  0.85655  Biso   1.000  C
  C139     1.0000 0.03074  0.68201  0.87088  Biso   1.000  C
  H89      1.0000 0.97950  0.66470  0.87940  Biso   1.000  H
  C140     1.0000 0.03450  0.73659  0.87278  Biso   1.000  C
  H90      1.0000 0.98590  0.75610  0.88200  Biso   1.000  H
  C141     1.0000 0.11079  0.76245  0.86086  Biso   1.000  C
  C142     1.0000 0.18230  0.73369  0.84662  Biso   1.000  C
  H91      1.0000 0.23370  0.75090  0.83830  Biso   1.000  H
  C143     1.0000 0.17680  0.67904  0.84492  Biso   1.000  C
  H92      1.0000 0.22540  0.65950  0.83560  Biso   1.000  H
  C144     1.0000 0.17975  0.84569  0.84499  Biso   1.000  C
  C145     1.0000 0.16114  0.86140  0.76133  Biso   1.000  C
  H93      1.0000 0.10320  0.85180  0.71630  Biso   1.000  H
  C146     1.0000 0.22928  0.89179  0.74401  Biso   1.000  C
  H94      1.0000 0.21660  0.90270  0.68670  Biso   1.000  H
  C147     1.0000 0.31544  0.90631  0.80948  Biso   1.000  C
  C148     1.0000 0.33118  0.89013  0.89380  Biso   1.000  C
  H95      1.0000 0.38860  0.89980  0.93950  Biso   1.000  H
  C149     1.0000 0.26290  0.85976  0.91145  Biso   1.000  C
  H96      1.0000 0.27420  0.84910  0.96860  Biso   1.000  H
  C150     1.0000 0.38809  0.93989  0.79006  Biso   1.000  C
  Zn7      1.0000 0.41851  0.99535  0.64014  Biso   1.000  Zn
  O31      1.0000 0.47337  0.06963  0.63784  Biso   1.000  O
  O32      1.0000 0.33285  0.06715  0.64934  Biso   1.000  O
  O33      1.0000 0.39200  0.31701  0.63684  Biso   1.000  O
  O34      1.0000 0.13532  0.45323  0.78887  Biso   1.000  O
  O35      1.0000 0.03459  0.45193  0.64873  Biso   1.000  O
  N13      1.0000 0.33347  0.97813  0.51230  Biso   1.000  N
  N14      1.0000 0.09644  0.97232  0.19506  Biso   1.000  N
  C151     1.0000 0.23977  0.99339  0.47366  Biso   1.000  C
  H97      1.0000 0.21000  0.00940  0.50800  Biso   1.000  H
  C152     1.0000 0.18676  0.98639  0.38670  Biso   1.000  C
  H98      1.0000 0.12220  0.99760  0.36260  Biso   1.000  H
  C153     1.0000 0.22955  0.96245  0.33416  Biso   1.000  C
  C154     1.0000 0.32512  0.94615  0.37383  Biso   1.000  C
  H99      1.0000 0.35590  0.92920  0.34110  Biso   1.000  H
  C155     1.0000 0.37473  0.95499  0.46201  Biso   1.000  C
  H100     1.0000 0.43950  0.94440  0.48750  Biso   1.000  H
  C156     1.0000 0.18100  0.95526  0.23897  Biso   1.000  C
  H101     1.0000 0.21430  0.93720  0.20950  Biso   1.000  H
  C157     1.0000 0.06511  0.91234  0.07085  Biso   1.000  C
  H102     1.0000 0.09130  0.88420  0.10930  Biso   1.000  H
  C158     1.0000 0.06064  0.96175  0.10341  Biso   1.000  C
  C159     1.0000 0.01745  0.00475  0.04596  Biso   1.000  C
  C160     1.0000 0.00906  0.05616  0.07664  Biso   1.000  C
  H103     1.0000 0.03110  0.06250  0.13670  Biso   1.000  H
  C161     1.0000 0.96930  0.09651  0.01984  Biso   1.000  C
  H104     1.0000 0.96480  0.13030  0.04110  Biso   1.000  H
  C162     1.0000 0.40165  0.09343  0.64397  Biso   1.000  C
  C163     1.0000 0.39850  0.15246  0.64345  Biso   1.000  C
  C164     1.0000 0.46926  0.18201  0.62912  Biso   1.000  C
  H105     1.0000 0.52050  0.16470  0.62060  Biso   1.000  H
  C165     1.0000 0.46550  0.23659  0.62722  Biso   1.000  C
  H106     1.0000 0.51410  0.25610  0.61800  Biso   1.000  H
  C166     1.0000 0.38921  0.26245  0.63914  Biso   1.000  C
  C167     1.0000 0.31770  0.23369  0.65338  Biso   1.000  C
  H107     1.0000 0.26630  0.25090  0.66170  Biso   1.000  H
  C168     1.0000 0.32320  0.17904  0.65508  Biso   1.000  C
  H108     1.0000 0.27460  0.15950  0.66440  Biso   1.000  H
  C169     1.0000 0.32025  0.34569  0.65501  Biso   1.000  C
  C170     1.0000 0.33886  0.36140  0.73867  Biso   1.000  C
  H109     1.0000 0.39680  0.35180  0.78370  Biso   1.000  H
  C171     1.0000 0.27072  0.39179  0.75599  Biso   1.000  C
  H110     1.0000 0.28340  0.40270  0.81330  Biso   1.000  H
  C172     1.0000 0.18456  0.40631  0.69052  Biso   1.000  C
  C173     1.0000 0.16882  0.39013  0.60620  Biso   1.000  C
  H111     1.0000 0.11140  0.39980  0.56050  Biso   1.000  H
  C174     1.0000 0.23710  0.35976  0.58855  Biso   1.000  C
  H112     1.0000 0.22580  0.34910  0.53140  Biso   1.000  H
  C175     1.0000 0.11191  0.43989  0.70994  Biso   1.000  C
  Zn8      1.0000 0.91851  0.49535  0.64014  Biso   1.000  Zn
  O36      1.0000 0.97337  0.56963  0.63784  Biso   1.000  O
  O37      1.0000 0.83285  0.56715  0.64934  Biso   1.000  O
  O38      1.0000 0.89200  0.81701  0.63684  Biso   1.000  O
  O39      1.0000 0.63532  0.95323  0.78887  Biso   1.000  O
  O40      1.0000 0.53459  0.95193  0.64873  Biso   1.000  O
  N15      1.0000 0.83347  0.47813  0.51230  Biso   1.000  N
  N16      1.0000 0.59644  0.47232  0.19506  Biso   1.000  N
  C176     1.0000 0.73977  0.49339  0.47366  Biso   1.000  C
  H113     1.0000 0.71000  0.50940  0.50800  Biso   1.000  H
  C177     1.0000 0.68676  0.48639  0.38670  Biso   1.000  C
  H114     1.0000 0.62220  0.49760  0.36260  Biso   1.000  H
  C178     1.0000 0.72955  0.46245  0.33416  Biso   1.000  C
  C179     1.0000 0.82512  0.44615  0.37383  Biso   1.000  C
  H115     1.0000 0.85590  0.42920  0.34110  Biso   1.000  H
  C180     1.0000 0.87473  0.45499  0.46201  Biso   1.000  C
  H116     1.0000 0.93950  0.44440  0.48750  Biso   1.000  H
  C181     1.0000 0.68100  0.45526  0.23897  Biso   1.000  C
  H117     1.0000 0.71430  0.43720  0.20950  Biso   1.000  H
  C182     1.0000 0.56511  0.41234  0.07085  Biso   1.000  C
  H118     1.0000 0.59130  0.38420  0.10930  Biso   1.000  H
  C183     1.0000 0.56064  0.46175  0.10341  Biso   1.000  C
  C184     1.0000 0.51745  0.50475  0.04596  Biso   1.000  C
  C185     1.0000 0.50906  0.55616  0.07664  Biso   1.000  C
  H119     1.0000 0.53110  0.56250  0.13670  Biso   1.000  H
  C186     1.0000 0.46930  0.59651  0.01984  Biso   1.000  C
  H120     1.0000 0.46480  0.63030  0.04110  Biso   1.000  H
  C187     1.0000 0.90165  0.59343  0.64397  Biso   1.000  C
  C188     1.0000 0.89850  0.65246  0.64345  Biso   1.000  C
  C189     1.0000 0.96926  0.68201  0.62912  Biso   1.000  C
  H121     1.0000 0.02050  0.66470  0.62060  Biso   1.000  H
  C190     1.0000 0.96550  0.73659  0.62722  Biso   1.000  C
  H122     1.0000 0.01410  0.75610  0.61800  Biso   1.000  H
  C191     1.0000 0.88921  0.76245  0.63914  Biso   1.000  C
  C192     1.0000 0.81770  0.73369  0.65338  Biso   1.000  C
  H123     1.0000 0.76630  0.75090  0.66170  Biso   1.000  H
  C193     1.0000 0.82320  0.67904  0.65508  Biso   1.000  C
  H124     1.0000 0.77460  0.65950  0.66440  Biso   1.000  H
  C194     1.0000 0.82025  0.84569  0.65501  Biso   1.000  C
  C195     1.0000 0.83886  0.86140  0.73867  Biso   1.000  C
  H125     1.0000 0.89680  0.85180  0.78370  Biso   1.000  H
  C196     1.0000 0.77072  0.89179  0.75599  Biso   1.000  C
  H126     1.0000 0.78340  0.90270  0.81330  Biso   1.000  H
  C197     1.0000 0.68456  0.90631  0.69052  Biso   1.000  C
  C198     1.0000 0.66882  0.89013  0.60620  Biso   1.000  C
  H127     1.0000 0.61140  0.89980  0.56050  Biso   1.000  H
  C199     1.0000 0.73710  0.85976  0.58855  Biso   1.000  C
  H128     1.0000 0.72580  0.84910  0.53140  Biso   1.000  H
  C200     1.0000 0.61191  0.93989  0.70994  Biso   1.000  C
